/*---------------------------------------------------------------------------*\
  =========                 |
  \\      /  F ield         | OpenFOAM: The Open Source CFD Toolbox
   \\    /   O peration     | Website:  https://openfoam.org
    \\  /    A nd           | Version:  12
     \\/     M anipulation  |
\*---------------------------------------------------------------------------*/
Build  : 12-17d01581437c
Exec   : foamRun -solver incompressibleFluid -parallel
Date   : Feb 08 2025
Time   : 23:11:52
Host   : "ElMakinon"
PID    : 24996
I/O    : uncollated
Case   : /home/cfd/OpenFOAM/cfd-12/Pitz_Daily_Steady_Project
nProcs : 8
Slaves : 
7
(
"ElMakinon.24997"
"ElMakinon.24998"
"ElMakinon.24999"
"ElMakinon.25000"
"ElMakinon.25001"
"ElMakinon.25002"
"ElMakinon.25003"
)

Pstream initialised with:
    floatTransfer      : false
    nProcsSimpleSum    : 0
    commsType          : nonBlocking
    polling iterations : 0
sigFpe : Enabling floating point exception trapping (FOAM_SIGFPE).
fileModificationChecking : Monitoring run-time modified files using timeStampMaster (fileModificationSkew 10)
allowSystemOperations : Allowing user-supplied system call operations

// * * * * * * * * * * * * * * * * * * * * * * * * * * * * * * * * * * * * * //
Create time

Create mesh for time = 0

Selecting solver incompressibleFluid
Selecting viscosity model constant
Selecting turbulence model type RAS
Selecting RAS turbulence model kEpsilon
Selecting generalised Newtonian model Newtonian
RAS
{
    model           kEpsilon;
    turbulence      on;
    printCoeffs     on;
    viscosityModel  Newtonian;
    Cmu             0.09;
    C1              1.44;
    C2              1.92;
    C3              0;
    sigmak          1;
    sigmaEps        1.3;
}

No MRF models present


SIMPLE: Convergence criteria found
        p: tolerance 0.01
        U: tolerance 0.001
        "(k|epsilon|omega|f|v2)": tolerance 0.001


SIMPLE: Operating solver in steady-state mode with 1 outer corrector
SIMPLE: Operating solver in SIMPLE mode



Starting time loop

streamlines streamlines:
    automatic track length specified through number of sub cycles : 5

    - selecting all cells
    - selected 12225 cell(s) with volume 1.4516039e-05


    - selecting all cells
    - selected 12225 cell(s) with volume 1.4516039e-05


    - selecting all cells
    - selected 12225 cell(s) with volume 1.4516039e-05


    - selecting all cells
    - selected 12225 cell(s) with volume 1.4516039e-05


streamlines streamlines write:
    Seeded 10 particles
    Sampled 114 locations
volFieldValue cellMin write:
    min() of p = 0 at location (0.15004636 -0.0003915257 1.2724495e-20) in cell 0 on processor 7
    min() of epsilon = 14.855 at location (0.15004636 -0.0003915257 1.2724495e-20) in cell 0 on processor 7
    min() of k = 0.375 at location (0.15004636 -0.0003915257 1.2724495e-20) in cell 0 on processor 7

volFieldValue cellMax write:
    max() of p = 0 at location (0.15004636 -0.0003915257 1.2724495e-20) in cell 0 on processor 7
    max() of epsilon = 14.855 at location (0.15004636 -0.0003915257 1.2724495e-20) in cell 0 on processor 7
    max() of k = 0.375 at location (0.15004636 -0.0003915257 1.2724495e-20) in cell 0 on processor 7

volFieldValue cellMinMag write:
    minMag() of U = 0 at location (0.15004636 -0.0003915257 1.2724495e-20) in cell 0 on processor 7

volFieldValue cellMaxMag write:
    maxMag() of U = 0 at location (0.15004636 -0.0003915257 1.2724495e-20) in cell 0 on processor 7

Time = 1s

smoothSolver:  Solving for Ux, Initial residual = 1, Final residual = 0.061941682, No Iterations 1
smoothSolver:  Solving for Uy, Initial residual = 0, Final residual = 0, No Iterations 0
GAMG:  Solving for p, Initial residual = 1, Final residual = 0.097198825, No Iterations 16
time step continuity errors : sum local = 1.7007739, global = -0.32590985, cumulative = -0.32590985
smoothSolver:  Solving for epsilon, Initial residual = 0.22323206, Final residual = 0.012619899, No Iterations 4
smoothSolver:  Solving for k, Initial residual = 1, Final residual = 0.059449552, No Iterations 5
ExecutionTime = 0.300065 s  ClockTime = 0 s

volFieldValue cellMin write:
    min() of p = 8.8323534 at location (0.28742795 0.0011246293 0) in cell 1118 on processor 5
    min() of epsilon = 12.901622 at location (0.23817534 -0.011830534 0) in cell 1212 on processor 4
    min() of k = 0.29312211 at location (0.00026417399 -0.024835675 2.2670237e-20) in cell 725 on processor 2

volFieldValue cellMax write:
    max() of p = 747.23567 at location (-0.0198086 0.000489703 0) in cell 1530 on processor 3
    max() of epsilon = 1033.4129 at location (0.28742806 0.016783751 3.03154e-20) in cell 1524 on processor 5
    max() of k = 8.8410604 at location (0.0002644794 0.00015994031 0) in cell 1207 on processor 3

volFieldValue cellMinMag write:
    minMag() of U = 0.16443735 at location (0.00026417399 -0.024835675 2.2670237e-20) in cell 725 on processor 2

volFieldValue cellMaxMag write:
    maxMag() of U = 16.334019 at location (-0.01138285 0.01409185 0) in cell 1198 on processor 3

Time = 2s

smoothSolver:  Solving for Ux, Initial residual = 0.42871097, Final residual = 0.03299137, No Iterations 5
smoothSolver:  Solving for Uy, Initial residual = 0.28856934, Final residual = 0.026130825, No Iterations 4
GAMG:  Solving for p, Initial residual = 0.047399283, Final residual = 0.0043179597, No Iterations 14
time step continuity errors : sum local = 4.5994819, global = 0.24203057, cumulative = -0.083879282
smoothSolver:  Solving for epsilon, Initial residual = 0.1473217, Final residual = 0.012401882, No Iterations 3
smoothSolver:  Solving for k, Initial residual = 0.37084917, Final residual = 0.025249184, No Iterations 5
ExecutionTime = 0.320975 s  ClockTime = 1 s

volFieldValue cellMin write:
    min() of p = -48.296064 at location (0.00026437515 -0.00018046651 0) in cell 64 on processor 2
    min() of epsilon = 11.760145 at location (0.22617107 -0.01250589 -1.4048274e-20) in cell 1105 on processor 4
    min() of k = 0.096015703 at location (0.00026417399 -0.024835675 2.2670237e-20) in cell 725 on processor 2

volFieldValue cellMax write:
    max() of p = 113.31099 at location (-0.0198086 0.0001594205 0) in cell 1531 on processor 3
    max() of epsilon = 31483.99 at location (0.00026437515 -0.00018046651 0) in cell 64 on processor 2
    max() of k = 12.037166 at location (0.0007949221 0.00016098307 0) in cell 42 on processor 2

volFieldValue cellMinMag write:
    minMag() of U = 0.00080972485 at location (0.17313657 0.024623373 -1.2776674e-20) in cell 623 on processor 5

volFieldValue cellMaxMag write:
    maxMag() of U = 14.128965 at location (-0.005776215 0.01409185 1.6007178e-20) in cell 1063 on processor 3

Time = 3s

smoothSolver:  Solving for Ux, Initial residual = 0.10429515, Final residual = 0.0074604526, No Iterations 5
smoothSolver:  Solving for Uy, Initial residual = 0.15690963, Final residual = 0.011036179, No Iterations 5
GAMG:  Solving for p, Initial residual = 0.14490244, Final residual = 0.012347097, No Iterations 6
time step continuity errors : sum local = 3.1202149, global = 0.28765369, cumulative = 0.20377441
smoothSolver:  Solving for epsilon, Initial residual = 0.085855394, Final residual = 0.005272299, No Iterations 4
smoothSolver:  Solving for k, Initial residual = 0.19662432, Final residual = 0.013479616, No Iterations 5
ExecutionTime = 0.334656 s  ClockTime = 1 s

volFieldValue cellMin write:
    min() of p = -94.820467 at location (0.00026437515 -0.00018046651 0) in cell 64 on processor 2
    min() of epsilon = 7.9785584 at location (0.00079461383 -0.024835925 2.2516347e-20) in cell 688 on processor 2
    min() of k = 0.078535634 at location (0.2381754 0.021917377 -2.4766058e-20) in cell 1446 on processor 5

volFieldValue cellMax write:
    max() of p = 37.606005 at location (0.0098649231 -0.02484005 0) in cell 1179 on processor 2
    max() of epsilon = 38884.674 at location (0.00026437515 -0.00018046651 0) in cell 64 on processor 2
    max() of k = 7.6686961 at location (0.0013293858 -0.00018196726 0) in cell 44 on processor 2

volFieldValue cellMinMag write:
    minMag() of U = 0.020488199 at location (0.18854701 0.024977499 2.2580031e-20) in cell 921 on processor 5

volFieldValue cellMaxMag write:
    maxMag() of U = 13.155088 at location (-0.0020451 0.0120018 0) in cell 950 on processor 3

Time = 4s

smoothSolver:  Solving for Ux, Initial residual = 0.0608148, Final residual = 0.0045790081, No Iterations 5
smoothSolver:  Solving for Uy, Initial residual = 0.08627896, Final residual = 0.0060976018, No Iterations 5
GAMG:  Solving for p, Initial residual = 0.10968869, Final residual = 0.007975256, No Iterations 5
time step continuity errors : sum local = 1.403395, global = 0.17108066, cumulative = 0.37485506
smoothSolver:  Solving for epsilon, Initial residual = 0.10484722, Final residual = 0.010111463, No Iterations 3
smoothSolver:  Solving for k, Initial residual = 0.13506663, Final residual = 0.009801272, No Iterations 5
ExecutionTime = 0.345973 s  ClockTime = 1 s

volFieldValue cellMin write:
    min() of p = -88.697313 at location (0.00026437515 -0.00018046651 0) in cell 64 on processor 2
    min() of epsilon = 7.845651 at location (0.00079461383 -0.024835925 2.2516347e-20) in cell 688 on processor 2
    min() of k = 0.077558781 at location (0.00026417399 -0.023707025 -1.5615387e-20) in cell 689 on processor 2

volFieldValue cellMax write:
    max() of p = 21.801755 at location (0.20910842 -0.024610038 0) in cell 1248 on processor 4
    max() of epsilon = 16586.456 at location (0.00026437515 -0.00018046651 0) in cell 64 on processor 2
    max() of k = 5.473451 at location (0.00079469112 -0.0025898982 3.9503393e-20) in cell 121 on processor 2

volFieldValue cellMinMag write:
    minMag() of U = 0.027150244 at location (0.001867905 -0.016946125 0) in cell 472 on processor 2

volFieldValue cellMaxMag write:
    maxMag() of U = 12.57704 at location (0.0013291357 0.012049023 -2.6565959e-20) in cell 840 on processor 3

Time = 5s

smoothSolver:  Solving for Ux, Initial residual = 0.055783393, Final residual = 0.0043333942, No Iterations 5
smoothSolver:  Solving for Uy, Initial residual = 0.080505751, Final residual = 0.0057173802, No Iterations 5
GAMG:  Solving for p, Initial residual = 0.093724507, Final residual = 0.0071224515, No Iterations 4
time step continuity errors : sum local = 0.99029762, global = -0.15115679, cumulative = 0.22369827
smoothSolver:  Solving for epsilon, Initial residual = 0.093585984, Final residual = 0.0077273937, No Iterations 3
smoothSolver:  Solving for k, Initial residual = 0.10158318, Final residual = 0.0080020777, No Iterations 5
ExecutionTime = 0.357603 s  ClockTime = 1 s

volFieldValue cellMin write:
    min() of p = -68.410412 at location (0.00026437515 -0.00018046651 0) in cell 64 on processor 2
    min() of epsilon = 6.8804229 at location (0.00079461383 -0.024835925 2.2516347e-20) in cell 688 on processor 2
    min() of k = 0.073718498 at location (0.00026417399 -0.024835675 2.2670237e-20) in cell 725 on processor 2

volFieldValue cellMax write:
    max() of p = 20.744655 at location (0.20702206 -0.024824573 0) in cell 1224 on processor 4
    max() of epsilon = 6566.2654 at location (0.00079481728 -0.00018121401 0) in cell 52 on processor 2
    max() of k = 5.1091301 at location (0.0018680053 -0.0020099209 0) in cell 112 on processor 2

volFieldValue cellMinMag write:
    minMag() of U = 0.051240522 at location (0.0035093295 -0.020334425 0) in cell 676 on processor 2

volFieldValue cellMaxMag write:
    maxMag() of U = 12.139765 at location (0.0035092808 0.012126498 2.5944264e-20) in cell 752 on processor 3

Time = 6s

smoothSolver:  Solving for Ux, Initial residual = 0.052489562, Final residual = 0.0043300479, No Iterations 5
smoothSolver:  Solving for Uy, Initial residual = 0.067862452, Final residual = 0.0053839022, No Iterations 5
GAMG:  Solving for p, Initial residual = 0.081361859, Final residual = 0.0054421191, No Iterations 4
time step continuity errors : sum local = 0.69267224, global = -0.12845982, cumulative = 0.095238448
smoothSolver:  Solving for epsilon, Initial residual = 0.060935753, Final residual = 0.0041161418, No Iterations 4
smoothSolver:  Solving for k, Initial residual = 0.083843389, Final residual = 0.0070325787, No Iterations 5
ExecutionTime = 0.370509 s  ClockTime = 1 s

volFieldValue cellMin write:
    min() of p = -53.498833 at location (0.00026437515 -0.00018046651 0) in cell 64 on processor 2
    min() of epsilon = 6.8535591 at location (0.00079461383 -0.024835925 2.2516347e-20) in cell 688 on processor 2
    min() of k = 0.083515498 at location (0.00026417399 -0.024835675 2.2670237e-20) in cell 725 on processor 2

volFieldValue cellMax write:
    max() of p = 21.938053 at location (-0.000395709 0.0001594205 0) in cell 1231 on processor 3
    max() of epsilon = 5920.7974 at location (0.00079481728 -0.00018121401 0) in cell 52 on processor 2
    max() of k = 4.1789874 at location (0.0018680536 -0.00099858735 1.8685979e-20) in cell 81 on processor 2

volFieldValue cellMinMag write:
    minMag() of U = 0.14693546 at location (0.016131921 -0.0248429 6.0988925e-20) in cell 1394 on processor 2

volFieldValue cellMaxMag write:
    maxMag() of U = 11.833392 at location (0.00026437515 -0.00018046651 0) in cell 64 on processor 2

Time = 7s

smoothSolver:  Solving for Ux, Initial residual = 0.049428907, Final residual = 0.0042373235, No Iterations 5
smoothSolver:  Solving for Uy, Initial residual = 0.063212576, Final residual = 0.0050716836, No Iterations 5
GAMG:  Solving for p, Initial residual = 0.069515149, Final residual = 0.0042454923, No Iterations 4
time step continuity errors : sum local = 0.54247313, global = -0.087275233, cumulative = 0.0079632152
smoothSolver:  Solving for epsilon, Initial residual = 0.061520261, Final residual = 0.0044149501, No Iterations 4
smoothSolver:  Solving for k, Initial residual = 0.076571588, Final residual = 0.006641123, No Iterations 5
ExecutionTime = 0.380755 s  ClockTime = 1 s

volFieldValue cellMin write:
    min() of p = -41.385191 at location (0.00026434478 -0.00056220337 0) in cell 77 on processor 2
    min() of epsilon = 7.5408866 at location (0.00079461383 -0.024835925 2.2516347e-20) in cell 688 on processor 2
    min() of k = 0.09185401 at location (0.00026417399 -0.024835675 2.2670237e-20) in cell 725 on processor 2

volFieldValue cellMax write:
    max() of p = 29.024084 at location (-0.000395709 0.0001594205 0) in cell 1231 on processor 3
    max() of epsilon = 6993.5691 at location (0.0013294912 0.00016203407 0) in cell 34 on processor 2
    max() of k = 4.2809866 at location (0.0018681129 -0.00018272626 0) in cell 54 on processor 2

volFieldValue cellMinMag write:
    minMag() of U = 0.085996572 at location (0.0040650171 -0.005771325 1.7152043e-20) in cell 297 on processor 2

volFieldValue cellMaxMag write:
    maxMag() of U = 11.604638 at location (0.0086686894 0.012309847 3.232593e-20) in cell 554 on processor 3

Time = 8s

smoothSolver:  Solving for Ux, Initial residual = 0.046624676, Final residual = 0.0041299256, No Iterations 5
smoothSolver:  Solving for Uy, Initial residual = 0.060423659, Final residual = 0.0048958749, No Iterations 5
GAMG:  Solving for p, Initial residual = 0.063474523, Final residual = 0.0061309126, No Iterations 3
time step continuity errors : sum local = 0.74433924, global = 0.10070967, cumulative = 0.10867288
smoothSolver:  Solving for epsilon, Initial residual = 0.060828275, Final residual = 0.0047640006, No Iterations 4
smoothSolver:  Solving for k, Initial residual = 0.073271883, Final residual = 0.0065969423, No Iterations 5
ExecutionTime = 0.391969 s  ClockTime = 1 s

volFieldValue cellMin write:
    min() of p = -32.643586 at location (0.00026434478 -0.00056220337 0) in cell 77 on processor 2
    min() of epsilon = 7.2933309 at location (0.23500074 -0.014493805 0) in cell 1262 on processor 4
    min() of k = 0.092514507 at location (0.00026417399 -0.024835675 2.2670237e-20) in cell 725 on processor 2

volFieldValue cellMax write:
    max() of p = 34.058649 at location (-0.000395709 0.0001594205 0) in cell 1231 on processor 3
    max() of epsilon = 5114.8183 at location (0.0018682189 0.00016309333 0) in cell 43 on processor 2
    max() of k = 3.5169537 at location (0.0024110251 -0.00018349127 -3.3057474e-20) in cell 66 on processor 2

volFieldValue cellMinMag write:
    minMag() of U = 0.095503572 at location (0.0051893516 -0.0057889524 0) in cell 348 on processor 2

volFieldValue cellMaxMag write:
    maxMag() of U = 11.4481 at location (0.0098648897 0.010677308 3.8340873e-20) in cell 489 on processor 3

Time = 9s

smoothSolver:  Solving for Ux, Initial residual = 0.043196869, Final residual = 0.0039919251, No Iterations 5
smoothSolver:  Solving for Uy, Initial residual = 0.059870859, Final residual = 0.0048096832, No Iterations 5
GAMG:  Solving for p, Initial residual = 0.059125558, Final residual = 0.0035912389, No Iterations 4
time step continuity errors : sum local = 0.4274046, global = -0.068321247, cumulative = 0.040351634
smoothSolver:  Solving for epsilon, Initial residual = 0.063294153, Final residual = 0.0053352759, No Iterations 4
smoothSolver:  Solving for k, Initial residual = 0.071127348, Final residual = 0.0065494677, No Iterations 5
ExecutionTime = 0.403611 s  ClockTime = 1 s

volFieldValue cellMin write:
    min() of p = -25.31004 at location (0.00026434478 -0.00056220337 0) in cell 77 on processor 2
    min() of epsilon = 6.8254893 at location (0.23817537 -0.015094122 -2.7016504e-20) in cell 1306 on processor 4
    min() of k = 0.098247564 at location (0.00026417399 -0.024835675 2.2670237e-20) in cell 725 on processor 2

volFieldValue cellMax write:
    max() of p = 37.74832 at location (-0.000395709 0.0001594205 0) in cell 1231 on processor 3
    max() of epsilon = 4322.7756 at location (0.0007949221 0.00016098307 0) in cell 42 on processor 2
    max() of k = 3.0419333 at location (0.015483406 0.0028937823 2.5990565e-20) in cell 389 on processor 2

volFieldValue cellMinMag write:
    minMag() of U = 0.1382379 at location (0.025039467 -0.024847 2.2633654e-20) in cell 1524 on processor 2

volFieldValue cellMaxMag write:
    maxMag() of U = 11.321824 at location (0.011694287 0.010749638 -1.8058811e-20) in cell 423 on processor 3

Time = 10s

smoothSolver:  Solving for Ux, Initial residual = 0.040500926, Final residual = 0.0038571843, No Iterations 5
smoothSolver:  Solving for Uy, Initial residual = 0.056815641, Final residual = 0.0046230894, No Iterations 5
GAMG:  Solving for p, Initial residual = 0.054842736, Final residual = 0.003418984, No Iterations 4
time step continuity errors : sum local = 0.40109176, global = -0.068180491, cumulative = -0.027828858
smoothSolver:  Solving for epsilon, Initial residual = 0.059920749, Final residual = 0.0055937688, No Iterations 4
smoothSolver:  Solving for k, Initial residual = 0.068978145, Final residual = 0.0064644937, No Iterations 5
ExecutionTime = 0.414707 s  ClockTime = 1 s

volFieldValue cellMin write:
    min() of p = -18.428783 at location (0.00026434478 -0.00056220337 0) in cell 77 on processor 2
    min() of epsilon = 6.4176598 at location (0.24147343 -0.014857353 0) in cell 1326 on processor 4
    min() of k = 0.10341053 at location (0.00026417399 -0.024835675 2.2670237e-20) in cell 725 on processor 2

volFieldValue cellMax write:
    max() of p = 39.875437 at location (-0.000395709 0.0001594205 0) in cell 1231 on processor 3
    max() of epsilon = 4664.3087 at location (0.00079478642 -0.00056439213 0) in cell 63 on processor 2
    max() of k = 4.0415508 at location (0.00079478642 -0.00056439213 0) in cell 63 on processor 2

volFieldValue cellMinMag write:
    minMag() of U = 0.13409639 at location (0.027965611 -0.024848325 0) in cell 1530 on processor 1

volFieldValue cellMaxMag write:
    maxMag() of U = 11.199337 at location (0.013566734 0.010823672 8.8546959e-21) in cell 357 on processor 3

Time = 11s

smoothSolver:  Solving for Ux, Initial residual = 0.037712398, Final residual = 0.0036964479, No Iterations 5
smoothSolver:  Solving for Uy, Initial residual = 0.054014518, Final residual = 0.0044551638, No Iterations 5
GAMG:  Solving for p, Initial residual = 0.051988948, Final residual = 0.0035739175, No Iterations 4
time step continuity errors : sum local = 0.41206808, global = -0.072023886, cumulative = -0.099852744
smoothSolver:  Solving for epsilon, Initial residual = 0.060028494, Final residual = 0.0058127275, No Iterations 4
smoothSolver:  Solving for k, Initial residual = 0.067133356, Final residual = 0.0064291498, No Iterations 5
ExecutionTime = 0.425635 s  ClockTime = 1 s

volFieldValue cellMin write:
    min() of p = -12.428448 at location (0.00026434478 -0.00056220337 0) in cell 77 on processor 2
    min() of epsilon = 6.0718174 at location (0.24147346 -0.015660443 1.2465848e-20) in cell 1346 on processor 4
    min() of k = 0.10518957 at location (0.00026417399 -0.024835675 2.2670237e-20) in cell 725 on processor 2

volFieldValue cellMax write:
    max() of p = 40.80182 at location (-0.000395709 0.0001594205 0) in cell 1231 on processor 3
    max() of epsilon = 4363.1044 at location (0.0007949221 0.00016098307 0) in cell 42 on processor 2
    max() of k = 3.340542 at location (0.016786008 0.0019108643 0) in cell 509 on processor 2

volFieldValue cellMinMag write:
    minMag() of U = 0.074524062 at location (0.008668752 -0.0068605122 -4.1241205e-20) in cell 559 on processor 2

volFieldValue cellMaxMag write:
    maxMag() of U = 11.157735 at location (0.0040651831 0.0026274388 3.1916639e-20) in cell 31 on processor 2

Time = 12s

smoothSolver:  Solving for Ux, Initial residual = 0.035387027, Final residual = 0.0035287036, No Iterations 5
smoothSolver:  Solving for Uy, Initial residual = 0.050945153, Final residual = 0.0043068529, No Iterations 5
GAMG:  Solving for p, Initial residual = 0.051562851, Final residual = 0.0036469142, No Iterations 4
time step continuity errors : sum local = 0.41100917, global = -0.073598611, cumulative = -0.17345135
smoothSolver:  Solving for epsilon, Initial residual = 0.056411123, Final residual = 0.003674669, No Iterations 5
smoothSolver:  Solving for k, Initial residual = 0.064537075, Final residual = 0.0063647811, No Iterations 5
ExecutionTime = 0.436132 s  ClockTime = 1 s

volFieldValue cellMin write:
    min() of p = -7.0092378 at location (0.00026434478 -0.00056220337 0) in cell 77 on processor 2
    min() of epsilon = 5.808339 at location (0.24490052 -0.015401151 -2.5910775e-20) in cell 1364 on processor 4
    min() of k = 0.10912491 at location (0.00026417399 -0.024835675 2.2670237e-20) in cell 725 on processor 2

volFieldValue cellMax write:
    max() of p = 40.726089 at location (-0.000395709 0.0001594205 0) in cell 1231 on processor 3
    max() of epsilon = 3906.3473 at location (0.0018681919 0.00050061856 5.8757026e-20) in cell 35 on processor 2
    max() of k = 3.4755809 at location (0.017444937 0.0014541063 -6.9908205e-21) in cell 575 on processor 2

volFieldValue cellMinMag write:
    minMag() of U = 0.13575352 at location (0.034097058 -0.024851125 0) in cell 1486 on processor 1

volFieldValue cellMaxMag write:
    maxMag() of U = 11.300253 at location (0.0051895223 0.0026536664 7.4332772e-21) in cell 50 on processor 2

Time = 13s

smoothSolver:  Solving for Ux, Initial residual = 0.033429306, Final residual = 0.0022095361, No Iterations 6
smoothSolver:  Solving for Uy, Initial residual = 0.048545923, Final residual = 0.0042181352, No Iterations 5
GAMG:  Solving for p, Initial residual = 0.052741069, Final residual = 0.0037884235, No Iterations 4
time step continuity errors : sum local = 0.41607813, global = -0.073546633, cumulative = -0.24699799
smoothSolver:  Solving for epsilon, Initial residual = 0.05411076, Final residual = 0.0036700719, No Iterations 5
smoothSolver:  Solving for k, Initial residual = 0.062171035, Final residual = 0.0040685591, No Iterations 6
ExecutionTime = 0.447113 s  ClockTime = 1 s

volFieldValue cellMin write:
    min() of p = -5.7273804 at location (0.0092646044 -0.0033678457 3.1411084e-20) in cell 459 on processor 2
    min() of epsilon = 5.6355583 at location (0.24490052 -0.015401151 -2.5910775e-20) in cell 1364 on processor 4
    min() of k = 0.10586978 at location (0.00026417399 -0.024835675 2.2670237e-20) in cell 725 on processor 2

volFieldValue cellMax write:
    max() of p = 39.221501 at location (-0.000395709 0.0001594205 0) in cell 1231 on processor 3
    max() of epsilon = 3906.6402 at location (0.0018681919 0.00050061856 5.8757026e-20) in cell 35 on processor 2
    max() of k = 3.5967708 at location (0.018109017 0.0010176183 -2.3353702e-20) in cell 645 on processor 2

volFieldValue cellMinMag write:
    minMag() of U = 0.13351366 at location (0.03730815 -0.0248526 9.4282306e-21) in cell 1440 on processor 1

volFieldValue cellMaxMag write:
    maxMag() of U = 11.400608 at location (0.0063314165 0.002680299 -7.2670643e-21) in cell 74 on processor 2

Time = 14s

smoothSolver:  Solving for Ux, Initial residual = 0.031448489, Final residual = 0.0020919448, No Iterations 6
smoothSolver:  Solving for Uy, Initial residual = 0.046968909, Final residual = 0.0041726815, No Iterations 5
GAMG:  Solving for p, Initial residual = 0.052207034, Final residual = 0.0036684811, No Iterations 4
time step continuity errors : sum local = 0.39450676, global = -0.070495, cumulative = -0.31749299
smoothSolver:  Solving for epsilon, Initial residual = 0.052117782, Final residual = 0.0036158557, No Iterations 5
smoothSolver:  Solving for k, Initial residual = 0.059826768, Final residual = 0.003969205, No Iterations 6
ExecutionTime = 0.45824 s  ClockTime = 1 s

volFieldValue cellMin write:
    min() of p = -6.6708081 at location (0.010470102 -0.0033846757 9.7941308e-21) in cell 522 on processor 2
    min() of epsilon = 5.5395321 at location (0.24846101 -0.015131791 0) in cell 1381 on processor 4
    min() of k = 0.10585985 at location (0.00026417399 -0.024835675 2.2670237e-20) in cell 725 on processor 2

volFieldValue cellMax write:
    max() of p = 37.001684 at location (-0.000395709 0.0001594205 0) in cell 1231 on processor 3
    max() of epsilon = 3849.6504 at location (0.0018681919 0.00050061856 5.8757026e-20) in cell 35 on processor 2
    max() of k = 3.7082233 at location (0.020132176 0.0010370516 0) in cell 755 on processor 2

volFieldValue cellMinMag write:
    minMag() of U = 0.12706104 at location (0.041464498 -0.0248545 0) in cell 1360 on processor 1

volFieldValue cellMaxMag write:
    maxMag() of U = 11.471166 at location (0.007491111 0.0032308166 -5.6324801e-20) in cell 89 on processor 2

Time = 15s

smoothSolver:  Solving for Ux, Initial residual = 0.029507389, Final residual = 0.0019898916, No Iterations 6
smoothSolver:  Solving for Uy, Initial residual = 0.046134794, Final residual = 0.0041231647, No Iterations 5
GAMG:  Solving for p, Initial residual = 0.051579203, Final residual = 0.003678492, No Iterations 4
time step continuity errors : sum local = 0.38542101, global = -0.068000023, cumulative = -0.38549301
smoothSolver:  Solving for epsilon, Initial residual = 0.050561468, Final residual = 0.0035079471, No Iterations 5
smoothSolver:  Solving for k, Initial residual = 0.057634284, Final residual = 0.0038409574, No Iterations 6
ExecutionTime = 0.469619 s  ClockTime = 1 s

volFieldValue cellMin write:
    min() of p = -7.6151492 at location (0.011694403 -0.0034017732 0) in cell 589 on processor 2
    min() of epsilon = 5.5123558 at location (0.24846101 -0.015131791 0) in cell 1381 on processor 4
    min() of k = 0.11046185 at location (0.00026417399 -0.024835675 2.2670237e-20) in cell 725 on processor 2

volFieldValue cellMax write:
    max() of p = 34.144921 at location (-0.000395709 0.0001594205 0) in cell 1231 on processor 3
    max() of epsilon = 3770.3682 at location (0.0013294912 0.00016203407 0) in cell 34 on processor 2
    max() of k = 3.8053452 at location (0.021507411 0.00061536761 2.1485688e-20) in cell 859 on processor 2

volFieldValue cellMinMag write:
    minMag() of U = 0.11563154 at location (0.044907446 -0.02485605 0) in cell 1272 on processor 1

volFieldValue cellMaxMag write:
    maxMag() of U = 11.511908 at location (0.008668931 0.0032618817 0) in cell 120 on processor 2

Time = 16s

smoothSolver:  Solving for Ux, Initial residual = 0.027785643, Final residual = 0.0018901284, No Iterations 6
smoothSolver:  Solving for Uy, Initial residual = 0.045382813, Final residual = 0.0040448933, No Iterations 5
GAMG:  Solving for p, Initial residual = 0.050441706, Final residual = 0.0037330206, No Iterations 4
time step continuity errors : sum local = 0.38014905, global = -0.065525534, cumulative = -0.45101855
smoothSolver:  Solving for epsilon, Initial residual = 0.049784552, Final residual = 0.0033817702, No Iterations 5
smoothSolver:  Solving for k, Initial residual = 0.055614971, Final residual = 0.0036946323, No Iterations 6
ExecutionTime = 0.480252 s  ClockTime = 1 s

volFieldValue cellMin write:
    min() of p = -8.4487254 at location (0.012937855 -0.0034191333 -2.0417889e-20) in cell 660 on processor 2
    min() of epsilon = 5.5428347 at location (0.25215994 -0.014851934 -2.4955789e-20) in cell 1397 on processor 4
    min() of k = 0.097923218 at location (0.00026417399 -0.024835675 2.2670237e-20) in cell 725 on processor 2

volFieldValue cellMax write:
    max() of p = 31.181049 at location (-0.000395709 0.0001594205 0) in cell 1231 on processor 3
    max() of epsilon = 3804.7632 at location (0.0018682189 0.00016309333 0) in cell 43 on processor 2
    max() of k = 3.8865299 at location (0.022903997 0.00020445253 0) in cell 936 on processor 2

volFieldValue cellMinMag write:
    minMag() of U = 0.10730921 at location (0.048458745 -0.0248577 0) in cell 1152 on processor 1

volFieldValue cellMaxMag write:
    maxMag() of U = 11.519722 at location (0.010470216 0.0033093894 -1.2614575e-20) in cell 174 on processor 2

Time = 17s

smoothSolver:  Solving for Ux, Initial residual = 0.026162932, Final residual = 0.001795573, No Iterations 6
smoothSolver:  Solving for Uy, Initial residual = 0.044549472, Final residual = 0.0039506371, No Iterations 5
GAMG:  Solving for p, Initial residual = 0.048424182, Final residual = 0.0037587335, No Iterations 4
time step continuity errors : sum local = 0.36991022, global = -0.061915812, cumulative = -0.51293436
smoothSolver:  Solving for epsilon, Initial residual = 0.047050746, Final residual = 0.0032520225, No Iterations 5
smoothSolver:  Solving for k, Initial residual = 0.053529708, Final residual = 0.0035371009, No Iterations 6
ExecutionTime = 0.491191 s  ClockTime = 1 s

volFieldValue cellMin write:
    min() of p = -9.2740996 at location (0.014200685 -0.0041857355 0) in cell 769 on processor 2
    min() of epsilon = 5.6240828 at location (0.25215994 -0.014851934 -2.4955789e-20) in cell 1397 on processor 4
    min() of k = 0.094762691 at location (0.00026417399 -0.024835675 2.2670237e-20) in cell 725 on processor 2

volFieldValue cellMax write:
    max() of p = 28.214627 at location (-0.000395709 0.0001594205 0) in cell 1231 on processor 3
    max() of epsilon = 3794.3384 at location (0.0018682189 0.00016309333 0) in cell 43 on processor 2
    max() of k = 3.9586375 at location (0.024322454 0.00020724154 -5.1212938e-20) in cell 1003 on processor 2

volFieldValue cellMinMag write:
    minMag() of U = 0.10232897 at location (0.052121743 -0.02485935 0) in cell 1010 on processor 1

volFieldValue cellMaxMag write:
    maxMag() of U = 11.520736 at location (0.011694501 0.0039118569 4.8677587e-20) in cell 556 on processor 3

Time = 18s

smoothSolver:  Solving for Ux, Initial residual = 0.024744044, Final residual = 0.0017046414, No Iterations 6
smoothSolver:  Solving for Uy, Initial residual = 0.043182429, Final residual = 0.0038515304, No Iterations 5
GAMG:  Solving for p, Initial residual = 0.046602995, Final residual = 0.0038459326, No Iterations 4
time step continuity errors : sum local = 0.35897165, global = -0.056231612, cumulative = -0.56916597
smoothSolver:  Solving for epsilon, Initial residual = 0.044902023, Final residual = 0.003113754, No Iterations 5
smoothSolver:  Solving for k, Initial residual = 0.051586723, Final residual = 0.0033696906, No Iterations 6
ExecutionTime = 0.502278 s  ClockTime = 1 s

volFieldValue cellMin write:
    min() of p = -10.212867 at location (0.015483236 -0.0042049255 0) in cell 839 on processor 2
    min() of epsilon = 5.7486737 at location (0.25600236 -0.014561203 0) in cell 1412 on processor 4
    min() of k = 0.092394152 at location (0.00026417399 -0.024835675 2.2670237e-20) in cell 725 on processor 2

volFieldValue cellMax write:
    max() of p = 25.065071 at location (-0.000395709 0.0001594205 0) in cell 1231 on processor 3
    max() of epsilon = 3387.3513 at location (0.0024111314 0.00016416083 0) in cell 53 on processor 2
    max() of k = 4.0214024 at location (0.025762836 -0.00021639665 -6.9968078e-20) in cell 1097 on processor 2

volFieldValue cellMinMag write:
    minMag() of U = 0.098348353 at location (0.055899983 -0.024861075 0) in cell 852 on processor 1

volFieldValue cellMaxMag write:
    maxMag() of U = 11.529343 at location (0.012937954 0.0039482295 -1.1357857e-20) in cell 512 on processor 3

Time = 19s

smoothSolver:  Solving for Ux, Initial residual = 0.023400078, Final residual = 0.0016144345, No Iterations 6
smoothSolver:  Solving for Uy, Initial residual = 0.041850423, Final residual = 0.0037615293, No Iterations 5
GAMG:  Solving for p, Initial residual = 0.045582158, Final residual = 0.0038503682, No Iterations 4
time step continuity errors : sum local = 0.34462046, global = -0.056969815, cumulative = -0.62613578
smoothSolver:  Solving for epsilon, Initial residual = 0.042327039, Final residual = 0.002964587, No Iterations 5
smoothSolver:  Solving for k, Initial residual = 0.049590284, Final residual = 0.0049327566, No Iterations 5
ExecutionTime = 0.512627 s  ClockTime = 1 s

volFieldValue cellMin write:
    min() of p = -10.643245 at location (0.016785787 -0.0042244181 0) in cell 909 on processor 2
    min() of epsilon = 5.9018394 at location (0.25999417 -0.013527926 -1.2825741e-20) in cell 1411 on processor 4
    min() of k = 0.09850765 at location (0.00026417399 -0.024835675 2.2670237e-20) in cell 725 on processor 2

volFieldValue cellMax write:
    max() of p = 22.513337 at location (-0.000395709 0.0001594205 0) in cell 1231 on processor 3
    max() of epsilon = 3386.65 at location (0.0024111314 0.00016416083 0) in cell 53 on processor 2
    max() of k = 4.0697279 at location (0.027225851 -0.00067345203 -2.6386542e-20) in cell 1180 on processor 2

volFieldValue cellMinMag write:
    minMag() of U = 0.097271182 at location (0.059797131 -0.024862875 0) in cell 809 on processor 1

volFieldValue cellMaxMag write:
    maxMag() of U = 11.52677 at location (0.014200809 0.0039851696 -1.3378267e-20) in cell 469 on processor 3

Time = 20s

smoothSolver:  Solving for Ux, Initial residual = 0.022128652, Final residual = 0.001532225, No Iterations 6
smoothSolver:  Solving for Uy, Initial residual = 0.040858009, Final residual = 0.0037083981, No Iterations 5
GAMG:  Solving for p, Initial residual = 0.043499498, Final residual = 0.0038845764, No Iterations 4
time step continuity errors : sum local = 0.3361224, global = -0.052718398, cumulative = -0.67885418
smoothSolver:  Solving for epsilon, Initial residual = 0.040277201, Final residual = 0.0027479733, No Iterations 5
smoothSolver:  Solving for k, Initial residual = 0.047739453, Final residual = 0.0046995952, No Iterations 5
ExecutionTime = 0.523951 s  ClockTime = 1 s

volFieldValue cellMin write:
    min() of p = -11.550255 at location (0.018108738 -0.0042442106 2.548797e-20) in cell 978 on processor 2
    min() of epsilon = 6.0586259 at location (0.25999417 -0.013527926 -1.2825741e-20) in cell 1411 on processor 4
    min() of k = 0.10062113 at location (0.00026417399 -0.024835675 2.2670237e-20) in cell 725 on processor 2

volFieldValue cellMax write:
    max() of p = 21.069083 at location (0.20702206 -0.024824573 0) in cell 1224 on processor 4
    max() of epsilon = 3618.9576 at location (0.0024111314 0.00016416083 0) in cell 53 on processor 2
    max() of k = 4.1302487 at location (0.029463309 -0.00068268432 7.2873714e-20) in cell 1108 on processor 1

volFieldValue cellMinMag write:
    minMag() of U = 0.096533069 at location (0.063816871 -0.0248647 0) in cell 971 on processor 1

volFieldValue cellMaxMag write:
    maxMag() of U = 11.514376 at location (0.016132114 0.0040416623 1.0765143e-20) in cell 403 on processor 3

Time = 21s

smoothSolver:  Solving for Ux, Initial residual = 0.020745875, Final residual = 0.0014359318, No Iterations 6
smoothSolver:  Solving for Uy, Initial residual = 0.039733632, Final residual = 0.0036935015, No Iterations 5
GAMG:  Solving for p, Initial residual = 0.042439734, Final residual = 0.0038291804, No Iterations 4
time step continuity errors : sum local = 0.31736148, global = -0.049805038, cumulative = -0.72865922
smoothSolver:  Solving for epsilon, Initial residual = 0.038010263, Final residual = 0.002488098, No Iterations 5
smoothSolver:  Solving for k, Initial residual = 0.045847365, Final residual = 0.0045394517, No Iterations 5
ExecutionTime = 0.535219 s  ClockTime = 1 s

volFieldValue cellMin write:
    min() of p = -12.191582 at location (0.019452239 -0.0042643131 0) in cell 1043 on processor 2
    min() of epsilon = 6.2287314 at location (0.25999417 -0.013527926 -1.2825741e-20) in cell 1411 on processor 4
    min() of k = 0.091063448 at location (0.00026417399 -0.024835675 2.2670237e-20) in cell 725 on processor 2

volFieldValue cellMax write:
    max() of p = 20.823781 at location (0.20702206 -0.024824573 0) in cell 1224 on processor 4
    max() of epsilon = 3852.4306 at location (0.0024111314 0.00016416083 0) in cell 53 on processor 2
    max() of k = 4.1891713 at location (0.030984074 -0.0011916065 0) in cell 1071 on processor 1

volFieldValue cellMinMag write:
    minMag() of U = 0.086618621 at location (0.067963068 -0.0248666 3.147717e-20) in cell 1117 on processor 1

volFieldValue cellMaxMag write:
    maxMag() of U = 11.494937 at location (0.017444818 0.0040800599 0) in cell 359 on processor 3

Time = 22s

smoothSolver:  Solving for Ux, Initial residual = 0.019532837, Final residual = 0.0013399041, No Iterations 6
smoothSolver:  Solving for Uy, Initial residual = 0.038639219, Final residual = 0.0037125918, No Iterations 5
GAMG:  Solving for p, Initial residual = 0.041408929, Final residual = 0.003831018, No Iterations 4
time step continuity errors : sum local = 0.30377745, global = -0.050538415, cumulative = -0.77919763
smoothSolver:  Solving for epsilon, Initial residual = 0.035995287, Final residual = 0.0023371967, No Iterations 5
smoothSolver:  Solving for k, Initial residual = 0.044071965, Final residual = 0.0043910978, No Iterations 5
ExecutionTime = 0.546645 s  ClockTime = 1 s

volFieldValue cellMin write:
    min() of p = -12.505205 at location (0.02081684 -0.0042847331 3.2420329e-20) in cell 1104 on processor 2
    min() of epsilon = 6.4043757 at location (0.25999417 -0.013527926 -1.2825741e-20) in cell 1411 on processor 4
    min() of k = 0.091030461 at location (0.00026417399 -0.024835675 2.2670237e-20) in cell 725 on processor 2

volFieldValue cellMax write:
    max() of p = 20.776366 at location (0.20702206 -0.024824573 0) in cell 1224 on processor 4
    max() of epsilon = 4088.5468 at location (0.0029582642 0.00016523659 0) in cell 65 on processor 2
    max() of k = 4.2433033 at location (0.03252859 -0.0017497642 0) in cell 1033 on processor 1

volFieldValue cellMinMag write:
    minMag() of U = 0.083757308 at location (0.072239765 -0.02486855 2.3377128e-20) in cell 1244 on processor 1

volFieldValue cellMaxMag write:
    maxMag() of U = 11.472023 at location (0.018778022 0.0041190575 3.3194438e-20) in cell 315 on processor 3

Time = 23s

smoothSolver:  Solving for Ux, Initial residual = 0.018366555, Final residual = 0.0012534801, No Iterations 6
smoothSolver:  Solving for Uy, Initial residual = 0.037433421, Final residual = 0.0024940584, No Iterations 6
GAMG:  Solving for p, Initial residual = 0.040383033, Final residual = 0.0038488164, No Iterations 4
time step continuity errors : sum local = 0.29514207, global = -0.04690984, cumulative = -0.82610747
smoothSolver:  Solving for epsilon, Initial residual = 0.033866347, Final residual = 0.0022387572, No Iterations 5
smoothSolver:  Solving for k, Initial residual = 0.042275632, Final residual = 0.0042070766, No Iterations 5
ExecutionTime = 0.557814 s  ClockTime = 1 s

volFieldValue cellMin write:
    min() of p = -13.403872 at location (0.022202642 -0.0043054681 -3.1907966e-20) in cell 1160 on processor 2
    min() of epsilon = 6.5821889 at location (0.25999417 -0.013527926 -1.2825741e-20) in cell 1411 on processor 4
    min() of k = 0.080712892 at location (0.00026417399 -0.024835675 2.2670237e-20) in cell 725 on processor 2

volFieldValue cellMax write:
    max() of p = 20.510491 at location (0.20702206 -0.024824573 0) in cell 1224 on processor 4
    max() of epsilon = 4299.2163 at location (0.0029582642 0.00016523659 0) in cell 65 on processor 2
    max() of k = 4.293412 at location (0.034097256 -0.0023609642 -2.7205421e-20) in cell 994 on processor 1

volFieldValue cellMinMag write:
    minMag() of U = 0.087192453 at location (0.075535363 -0.02487005 3.0081593e-20) in cell 1319 on processor 1

volFieldValue cellMaxMag write:
    maxMag() of U = 11.443992 at location (0.020132027 0.0041586652 0) in cell 271 on processor 3

Time = 24s

smoothSolver:  Solving for Ux, Initial residual = 0.01723232, Final residual = 0.0011720399, No Iterations 6
smoothSolver:  Solving for Uy, Initial residual = 0.035660991, Final residual = 0.0024849325, No Iterations 6
GAMG:  Solving for p, Initial residual = 0.039640125, Final residual = 0.0039310934, No Iterations 4
time step continuity errors : sum local = 0.28571175, global = -0.048735633, cumulative = -0.87484311
smoothSolver:  Solving for epsilon, Initial residual = 0.031789649, Final residual = 0.0021263461, No Iterations 5
smoothSolver:  Solving for k, Initial residual = 0.040512364, Final residual = 0.0040092191, No Iterations 5
ExecutionTime = 0.568496 s  ClockTime = 1 s

volFieldValue cellMin write:
    min() of p = -13.665602 at location (0.023610142 -0.0043265281 -1.4944109e-20) in cell 1211 on processor 2
    min() of epsilon = 6.7582377 at location (0.25999417 -0.013527926 -1.2825741e-20) in cell 1411 on processor 4
    min() of k = 0.08824983 at location (0.00026417399 -0.024835675 2.2670237e-20) in cell 725 on processor 2

volFieldValue cellMax write:
    max() of p = 20.494087 at location (0.20702204 0.025164502 -1.6001003e-20) in cell 1224 on processor 5
    max() of epsilon = 4442.61 at location (0.0029582642 0.00016523659 0) in cell 65 on processor 2
    max() of k = 4.3429034 at location (0.03569036 -0.0023783142 -1.8294565e-20) in cell 915 on processor 1

volFieldValue cellMinMag write:
    minMag() of U = 0.086870509 at location (0.08005026 -0.0248721 -5.863209e-20) in cell 1519 on processor 7

volFieldValue cellMaxMag write:
    maxMag() of U = 11.423172 at location (0.021507209 0.0048317676 6.8330953e-20) in cell 204 on processor 3

Time = 25s

smoothSolver:  Solving for Ux, Initial residual = 0.016194336, Final residual = 0.0011035936, No Iterations 6
smoothSolver:  Solving for Uy, Initial residual = 0.034220611, Final residual = 0.0024556449, No Iterations 6
GAMG:  Solving for p, Initial residual = 0.037986043, Final residual = 0.002817648, No Iterations 5
time step continuity errors : sum local = 0.19769433, global = 0.030259108, cumulative = -0.844584
smoothSolver:  Solving for epsilon, Initial residual = 0.029767853, Final residual = 0.0019862139, No Iterations 5
smoothSolver:  Solving for k, Initial residual = 0.038850683, Final residual = 0.0038503543, No Iterations 5
ExecutionTime = 0.58021 s  ClockTime = 1 s

volFieldValue cellMin write:
    min() of p = -14.627793 at location (0.025039544 -0.0043479157 0) in cell 1258 on processor 2
    min() of epsilon = 6.9346388 at location (0.25600236 -0.013814477 0) in cell 1396 on processor 4
    min() of k = 0.08323628 at location (0.00026417399 -0.024835675 2.2670237e-20) in cell 725 on processor 2

volFieldValue cellMax write:
    max() of p = 20.402941 at location (0.20702204 0.025164502 -1.6001003e-20) in cell 1224 on processor 5
    max() of epsilon = 4545.9752 at location (0.0029582642 0.00016523659 0) in cell 65 on processor 2
    max() of k = 4.3918 at location (0.037308326 -0.0030497166 -2.4268604e-20) in cell 873 on processor 1

volFieldValue cellMinMag write:
    minMag() of U = 0.077621241 at location (0.083529457 -0.0248737 -2.8758669e-20) in cell 1504 on processor 7

volFieldValue cellMaxMag write:
    maxMag() of U = 11.402571 at location (0.022903764 0.0048763727 0) in cell 161 on processor 3

Time = 26s

smoothSolver:  Solving for Ux, Initial residual = 0.015119539, Final residual = 0.0010230388, No Iterations 6
smoothSolver:  Solving for Uy, Initial residual = 0.032965623, Final residual = 0.0024040302, No Iterations 6
GAMG:  Solving for p, Initial residual = 0.037115267, Final residual = 0.0031989086, No Iterations 4
time step continuity errors : sum local = 0.21207705, global = -0.031942366, cumulative = -0.87652637
smoothSolver:  Solving for epsilon, Initial residual = 0.027866425, Final residual = 0.0018322516, No Iterations 5
smoothSolver:  Solving for k, Initial residual = 0.037274268, Final residual = 0.0037172043, No Iterations 5
ExecutionTime = 0.59123 s  ClockTime = 1 s

volFieldValue cellMin write:
    min() of p = -15.03351 at location (0.025762594 -0.0043587357 0) in cell 1280 on processor 2
    min() of epsilon = 7.0960159 at location (0.25999417 -0.012796698 0) in cell 1395 on processor 4
    min() of k = 0.083320355 at location (0.00026417399 -0.024835675 2.2670237e-20) in cell 725 on processor 2

volFieldValue cellMax write:
    max() of p = 20.361488 at location (0.20702204 0.025164502 -1.6001003e-20) in cell 1224 on processor 5
    max() of epsilon = 4618.6617 at location (0.0029582642 0.00016523659 0) in cell 65 on processor 2
    max() of k = 4.4413238 at location (0.038951591 -0.0037823563 0) in cell 830 on processor 1

volFieldValue cellMinMag write:
    minMag() of U = 0.081456144 at location (0.085894196 -0.024874775 -4.1839786e-20) in cell 1489 on processor 7

volFieldValue cellMaxMag write:
    maxMag() of U = 11.377174 at location (0.024322217 0.0049216779 -2.8345438e-20) in cell 120 on processor 3

Time = 27s

smoothSolver:  Solving for Ux, Initial residual = 0.014117733, Final residual = 0.00095606812, No Iterations 6
smoothSolver:  Solving for Uy, Initial residual = 0.031990575, Final residual = 0.0023413858, No Iterations 6
GAMG:  Solving for p, Initial residual = 0.036662478, Final residual = 0.0034864149, No Iterations 4
time step continuity errors : sum local = 0.22213163, global = -0.03574312, cumulative = -0.91226949
smoothSolver:  Solving for epsilon, Initial residual = 0.026179586, Final residual = 0.0016900431, No Iterations 5
smoothSolver:  Solving for k, Initial residual = 0.035784737, Final residual = 0.0023159076, No Iterations 6
ExecutionTime = 0.602482 s  ClockTime = 1 s

volFieldValue cellMin write:
    min() of p = -15.469624 at location (0.027225674 -0.003618631 0) in cell 1300 on processor 2
    min() of epsilon = 7.246452 at location (0.25600236 -0.013067751 -3.6044635e-20) in cell 1379 on processor 4
    min() of k = 0.079738404 at location (0.00026417399 -0.024835675 2.2670237e-20) in cell 725 on processor 2

volFieldValue cellMax write:
    max() of p = 20.394279 at location (0.20702204 0.025164502 -1.6001003e-20) in cell 1224 on processor 5
    max() of epsilon = 4681.9094 at location (0.0035096519 0.00016632084 -4.7204121e-20) in cell 78 on processor 2
    max() of k = 4.4872128 at location (0.040620408 -0.0045810434 2.6286021e-20) in cell 785 on processor 1

volFieldValue cellMinMag write:
    minMag() of U = 0.068091711 at location (0.089510793 -0.024876425 -1.3177494e-20) in cell 1459 on processor 7

volFieldValue cellMaxMag write:
    maxMag() of U = 11.35153 at location (0.025762722 0.0049676905 -1.9023734e-20) in cell 83 on processor 3

Time = 28s

smoothSolver:  Solving for Ux, Initial residual = 0.013187877, Final residual = 0.00088593664, No Iterations 6
smoothSolver:  Solving for Uy, Initial residual = 0.03069672, Final residual = 0.0022433863, No Iterations 6
GAMG:  Solving for p, Initial residual = 0.036663303, Final residual = 0.0028822029, No Iterations 5
time step continuity errors : sum local = 0.17620523, global = 0.026391985, cumulative = -0.8858775
smoothSolver:  Solving for epsilon, Initial residual = 0.024754488, Final residual = 0.0015885809, No Iterations 5
smoothSolver:  Solving for k, Initial residual = 0.034365385, Final residual = 0.0022397463, No Iterations 6
ExecutionTime = 0.614071 s  ClockTime = 1 s

volFieldValue cellMin write:
    min() of p = -15.836948 at location (0.027965696 -0.0043916982 -1.6462164e-20) in cell 1339 on processor 1
    min() of epsilon = 7.3396795 at location (0.00079461383 -0.024835925 2.2516347e-20) in cell 688 on processor 2
    min() of k = 0.074025119 at location (0.00026417399 -0.024835675 2.2670237e-20) in cell 725 on processor 2

volFieldValue cellMax write:
    max() of p = 20.376395 at location (0.20702204 0.025164502 -1.6001003e-20) in cell 1224 on processor 5
    max() of epsilon = 4736.9483 at location (0.0035096519 0.00016632084 -4.7204121e-20) in cell 78 on processor 2
    max() of k = 4.5300747 at location (0.042315375 -0.0054510179 2.3890935e-20) in cell 740 on processor 1

volFieldValue cellMinMag write:
    minMag() of U = 0.069881444 at location (0.09321234 -0.024878125 0) in cell 1420 on processor 7

volFieldValue cellMaxMag write:
    maxMag() of U = 11.328135 at location (0.026491424 0.004990963 0) in cell 66 on processor 3

Time = 29s

smoothSolver:  Solving for Ux, Initial residual = 0.012329423, Final residual = 0.00081809988, No Iterations 6
smoothSolver:  Solving for Uy, Initial residual = 0.029726364, Final residual = 0.0021380338, No Iterations 6
GAMG:  Solving for p, Initial residual = 0.035521315, Final residual = 0.0032712087, No Iterations 4
time step continuity errors : sum local = 0.19135925, global = -0.030674803, cumulative = -0.9165523
smoothSolver:  Solving for epsilon, Initial residual = 0.023335129, Final residual = 0.0014997059, No Iterations 5
smoothSolver:  Solving for k, Initial residual = 0.032982492, Final residual = 0.0021657825, No Iterations 6
ExecutionTime = 0.626524 s  ClockTime = 1 s

volFieldValue cellMin write:
    min() of p = -16.102735 at location (0.029463098 -0.0044141032 1.3964028e-20) in cell 1291 on processor 1
    min() of epsilon = 7.0956616 at location (0.00079461383 -0.024835925 2.2516347e-20) in cell 688 on processor 2
    min() of k = 0.072932316 at location (0.00026417399 -0.024835675 2.2670237e-20) in cell 725 on processor 2

volFieldValue cellMax write:
    max() of p = 20.358427 at location (0.20702204 0.025164502 -1.6001003e-20) in cell 1224 on processor 5
    max() of epsilon = 4760.9723 at location (0.0035096519 0.00016632084 -4.7204121e-20) in cell 78 on processor 2
    max() of k = 4.5772823 at location (0.044036776 -0.0054777854 -1.1014199e-20) in cell 655 on processor 1

volFieldValue cellMinMag write:
    minMag() of U = 0.062717479 at location (0.095728238 -0.024879275 0) in cell 1404 on processor 7

volFieldValue cellMaxMag write:
    maxMag() of U = 11.301987 at location (0.027965829 0.0050380532 0) in cell 1326 on processor 0

Time = 30s

smoothSolver:  Solving for Ux, Initial residual = 0.011526096, Final residual = 0.00076248747, No Iterations 6
smoothSolver:  Solving for Uy, Initial residual = 0.028745946, Final residual = 0.0020439977, No Iterations 6
GAMG:  Solving for p, Initial residual = 0.03517322, Final residual = 0.0029872556, No Iterations 5
time step continuity errors : sum local = 0.16835274, global = 0.02610149, cumulative = -0.89045081
smoothSolver:  Solving for epsilon, Initial residual = 0.022229718, Final residual = 0.0014249416, No Iterations 5
smoothSolver:  Solving for k, Initial residual = 0.031625516, Final residual = 0.0020850424, No Iterations 6
ExecutionTime = 0.637766 s  ClockTime = 1 s

volFieldValue cellMin write:
    min() of p = -16.49059 at location (0.030983899 -0.0044368582 0) in cell 1235 on processor 1
    min() of epsilon = 7.146723 at location (0.00079461383 -0.024835925 2.2516347e-20) in cell 688 on processor 2
    min() of k = 0.073835532 at location (0.00026417399 -0.024835675 2.2670237e-20) in cell 725 on processor 2

volFieldValue cellMax write:
    max() of p = 20.310681 at location (0.20702204 0.025164502 -1.6001003e-20) in cell 1224 on processor 5
    max() of epsilon = 4760.1643 at location (0.0035096519 0.00016632084 -4.7204121e-20) in cell 78 on processor 2
    max() of k = 4.616607 at location (0.045785042 -0.0064253649 3.1378461e-20) in cell 613 on processor 1

volFieldValue cellMinMag write:
    minMag() of U = 0.059205489 at location (0.098283426 -0.02488045 0) in cell 1371 on processor 7

volFieldValue cellMaxMag write:
    maxMag() of U = 11.277327 at location (0.029463234 0.0050858859 2.4918314e-20) in cell 1270 on processor 0

Time = 31s

smoothSolver:  Solving for Ux, Initial residual = 0.010762804, Final residual = 0.00070903246, No Iterations 6
smoothSolver:  Solving for Uy, Initial residual = 0.02779749, Final residual = 0.0019422279, No Iterations 6
GAMG:  Solving for p, Initial residual = 0.03475436, Final residual = 0.0034325968, No Iterations 4
time step continuity errors : sum local = 0.1853102, global = -0.031950674, cumulative = -0.92240149
smoothSolver:  Solving for epsilon, Initial residual = 0.020950637, Final residual = 0.0013647627, No Iterations 5
smoothSolver:  Solving for k, Initial residual = 0.030287819, Final residual = 0.0019987386, No Iterations 6
ExecutionTime = 0.649165 s  ClockTime = 1 s

volFieldValue cellMin write:
    min() of p = -16.791159 at location (0.032528451 -0.0044599683 4.1997137e-20) in cell 1171 on processor 1
    min() of epsilon = 7.2692184 at location (0.00079461383 -0.024835925 2.2516347e-20) in cell 688 on processor 2
    min() of k = 0.071034827 at location (0.00026417399 -0.024835675 2.2670237e-20) in cell 725 on processor 2

volFieldValue cellMax write:
    max() of p = 20.233605 at location (0.20702204 0.025164502 -1.6001003e-20) in cell 1224 on processor 5
    max() of epsilon = 4751.2718 at location (0.0035096519 0.00016632084 -4.7204121e-20) in cell 78 on processor 2
    max() of k = 4.6572903 at location (0.047560642 -0.0064531999 0) in cell 532 on processor 1

volFieldValue cellMinMag write:
    minMag() of U = 0.010538666 at location (0.032528359 -0.010561074 0) in cell 1333 on processor 1

volFieldValue cellMaxMag write:
    maxMag() of U = 11.252251 at location (0.030220685 0.0051100784 3.4377232e-20) in cell 1239 on processor 0

Time = 32s

smoothSolver:  Solving for Ux, Initial residual = 0.010074112, Final residual = 0.0006653316, No Iterations 6
smoothSolver:  Solving for Uy, Initial residual = 0.02697466, Final residual = 0.0018589317, No Iterations 6
GAMG:  Solving for p, Initial residual = 0.034902963, Final residual = 0.0030834071, No Iterations 5
time step continuity errors : sum local = 0.16073809, global = 0.026890529, cumulative = -0.89551096
smoothSolver:  Solving for epsilon, Initial residual = 0.019817088, Final residual = 0.0013133627, No Iterations 5
smoothSolver:  Solving for k, Initial residual = 0.028983678, Final residual = 0.0019175181, No Iterations 6
ExecutionTime = 0.661273 s  ClockTime = 1 s

volFieldValue cellMin write:
    min() of p = -17.126401 at location (0.033309751 -0.0044716583 2.8265716e-20) in cell 1137 on processor 1
    min() of epsilon = 6.9533767 at location (0.00079461383 -0.024835925 2.2516347e-20) in cell 688 on processor 2
    min() of k = 0.065862675 at location (0.00026417399 -0.024835675 2.2670237e-20) in cell 725 on processor 2

volFieldValue cellMax write:
    max() of p = 20.215433 at location (0.20702204 0.025164502 -1.6001003e-20) in cell 1224 on processor 5
    max() of epsilon = 4733.0616 at location (0.0040653245 0.00016741335 -4.6555901e-20) in cell 92 on processor 2
    max() of k = 4.6889658 at location (0.048458758 -0.0074689169 0) in cell 531 on processor 1

volFieldValue cellMinMag write:
    minMag() of U = 0.055598749 at location (0.034097058 -0.010580424 4.0297319e-20) in cell 1285 on processor 1

volFieldValue cellMaxMag write:
    maxMag() of U = 11.229097 at location (0.031753339 0.0051590285 1.7593931e-20) in cell 1168 on processor 0

Time = 33s

smoothSolver:  Solving for Ux, Initial residual = 0.0094463472, Final residual = 0.00062321131, No Iterations 6
smoothSolver:  Solving for Uy, Initial residual = 0.026282646, Final residual = 0.0017875275, No Iterations 6
GAMG:  Solving for p, Initial residual = 0.033785543, Final residual = 0.0033282431, No Iterations 4
time step continuity errors : sum local = 0.16693774, global = -0.030899945, cumulative = -0.9264109
smoothSolver:  Solving for epsilon, Initial residual = 0.018747614, Final residual = 0.0012613606, No Iterations 5
smoothSolver:  Solving for k, Initial residual = 0.027715184, Final residual = 0.0018414227, No Iterations 6
ExecutionTime = 0.672534 s  ClockTime = 1 s

volFieldValue cellMin write:
    min() of p = -17.315801 at location (0.034890603 -0.0044953108 -6.8791169e-20) in cell 1066 on processor 1
    min() of epsilon = 6.7007372 at location (0.00079461383 -0.024835925 2.2516347e-20) in cell 688 on processor 2
    min() of k = 0.063612128 at location (0.00026417399 -0.024835675 2.2670237e-20) in cell 725 on processor 2

volFieldValue cellMax write:
    max() of p = 20.103284 at location (0.20702204 0.025164502 -1.6001003e-20) in cell 1224 on processor 5
    max() of epsilon = 4720.8593 at location (0.0040653245 0.00016741335 -4.6555901e-20) in cell 92 on processor 2
    max() of k = 4.7248297 at location (0.050276106 -0.0074967043 1.9124424e-20) in cell 452 on processor 1

volFieldValue cellMinMag write:
    minMag() of U = 0.055601685 at location (0.10484737 -0.02488345 1.2165675e-20) in cell 1270 on processor 7

volFieldValue cellMaxMag write:
    maxMag() of U = 11.206425 at location (0.032528593 0.0051837912 2.5383865e-20) in cell 1128 on processor 0

Time = 34s

smoothSolver:  Solving for Ux, Initial residual = 0.0088804779, Final residual = 0.00058872163, No Iterations 6
smoothSolver:  Solving for Uy, Initial residual = 0.025732572, Final residual = 0.0017358615, No Iterations 6
GAMG:  Solving for p, Initial residual = 0.034196938, Final residual = 0.0029963135, No Iterations 5
time step continuity errors : sum local = 0.14518115, global = 0.028166487, cumulative = -0.89824442
smoothSolver:  Solving for epsilon, Initial residual = 0.017741495, Final residual = 0.0012098593, No Iterations 5
smoothSolver:  Solving for k, Initial residual = 0.026530985, Final residual = 0.0017680936, No Iterations 6
ExecutionTime = 0.684013 s  ClockTime = 1 s

volFieldValue cellMin write:
    min() of p = -17.496174 at location (0.035690254 -0.0045072783 0) in cell 1029 on processor 1
    min() of epsilon = 6.6368779 at location (0.00079461383 -0.024835925 2.2516347e-20) in cell 688 on processor 2
    min() of k = 0.061138465 at location (0.00026417399 -0.024835675 2.2670237e-20) in cell 725 on processor 2

volFieldValue cellMax write:
    max() of p = 20.088861 at location (0.20702204 0.025164502 -1.6001003e-20) in cell 1224 on processor 5
    max() of epsilon = 4659.4738 at location (0.0040653245 0.00016741335 -4.6555901e-20) in cell 92 on processor 2
    max() of k = 4.7503313 at location (0.052121755 -0.0075249243 1.8873825e-20) in cell 377 on processor 1

volFieldValue cellMinMag write:
    minMag() of U = 0.042922756 at location (0.00026417399 -0.024835675 2.2670237e-20) in cell 725 on processor 2

volFieldValue cellMaxMag write:
    maxMag() of U = 11.18459 at location (0.034097298 0.0052338938 -1.7085706e-20) in cell 1043 on processor 0

Time = 35s

smoothSolver:  Solving for Ux, Initial residual = 0.0083878505, Final residual = 0.00055648118, No Iterations 6
smoothSolver:  Solving for Uy, Initial residual = 0.02528125, Final residual = 0.0016929011, No Iterations 6
GAMG:  Solving for p, Initial residual = 0.034688356, Final residual = 0.0026066318, No Iterations 5
time step continuity errors : sum local = 0.12183523, global = 0.023105533, cumulative = -0.87513888
smoothSolver:  Solving for epsilon, Initial residual = 0.016776729, Final residual = 0.0011581088, No Iterations 5
smoothSolver:  Solving for k, Initial residual = 0.025357883, Final residual = 0.0016953337, No Iterations 6
ExecutionTime = 0.696068 s  ClockTime = 1 s

volFieldValue cellMin write:
    min() of p = -17.621607 at location (0.037308255 -0.0045314883 -1.2822951e-20) in cell 952 on processor 1
    min() of epsilon = 6.4244067 at location (0.00079461383 -0.024835925 2.2516347e-20) in cell 688 on processor 2
    min() of k = 0.05884118 at location (0.00026417399 -0.024835675 2.2670237e-20) in cell 725 on processor 2

volFieldValue cellMax write:
    max() of p = 20.010837 at location (0.20702204 0.025164502 -1.6001003e-20) in cell 1224 on processor 5
    max() of epsilon = 4682.0685 at location (0.0029581573 -0.00018426227 0) in cell 79 on processor 2
    max() of k = 4.7735812 at location (0.053996217 -0.0086401663 2.3597302e-20) in cell 340 on processor 1

volFieldValue cellMinMag write:
    minMag() of U = 0.02503303 at location (0.00026417399 -0.024835675 2.2670237e-20) in cell 725 on processor 2

volFieldValue cellMaxMag write:
    maxMag() of U = 11.165796 at location (0.034890749 0.0052592364 0) in cell 999 on processor 0

Time = 36s

smoothSolver:  Solving for Ux, Initial residual = 0.007915332, Final residual = 0.00052792952, No Iterations 6
smoothSolver:  Solving for Uy, Initial residual = 0.024770746, Final residual = 0.0016640026, No Iterations 6
GAMG:  Solving for p, Initial residual = 0.034073873, Final residual = 0.0026506929, No Iterations 5
time step continuity errors : sum local = 0.11980715, global = 0.022855205, cumulative = -0.85228368
smoothSolver:  Solving for epsilon, Initial residual = 0.015898649, Final residual = 0.0011060682, No Iterations 5
smoothSolver:  Solving for k, Initial residual = 0.024210856, Final residual = 0.0016206071, No Iterations 6
ExecutionTime = 0.707908 s  ClockTime = 1 s

volFieldValue cellMin write:
    min() of p = -17.793635 at location (0.038126707 -0.0045437334 1.2711094e-20) in cell 912 on processor 1
    min() of epsilon = 6.3748869 at location (0.00079461383 -0.024835925 2.2516347e-20) in cell 688 on processor 2
    min() of k = 0.056478674 at location (0.00026417399 -0.024835675 2.2670237e-20) in cell 725 on processor 2

volFieldValue cellMax write:
    max() of p = 19.91546 at location (0.20702204 0.025164502 -1.6001003e-20) in cell 1224 on processor 5
    max() of epsilon = 4724.2815 at location (0.0029581573 -0.00018426227 0) in cell 79 on processor 2
    max() of k = 4.7962246 at location (0.055899964 -0.0086674488 0) in cell 271 on processor 1

volFieldValue cellMinMag write:
    minMag() of U = 0.02377783 at location (0.00026417399 -0.024835675 2.2670237e-20) in cell 725 on processor 2

volFieldValue cellMaxMag write:
    maxMag() of U = 11.146147 at location (0.035690402 0.0052847765 1.6753053e-20) in cell 954 on processor 0

Time = 37s

smoothSolver:  Solving for Ux, Initial residual = 0.0074791189, Final residual = 0.00050124528, No Iterations 6
smoothSolver:  Solving for Uy, Initial residual = 0.024421144, Final residual = 0.0016513049, No Iterations 6
GAMG:  Solving for p, Initial residual = 0.03385961, Final residual = 0.0032529688, No Iterations 4
time step continuity errors : sum local = 0.14298793, global = -0.029586751, cumulative = -0.88187043
smoothSolver:  Solving for epsilon, Initial residual = 0.014975971, Final residual = 0.0010522274, No Iterations 5
smoothSolver:  Solving for k, Initial residual = 0.023105986, Final residual = 0.001545583, No Iterations 6
ExecutionTime = 0.720112 s  ClockTime = 1 s

volFieldValue cellMin write:
    min() of p = -17.916284 at location (0.038951557 -0.0045560734 0) in cell 871 on processor 1
    min() of epsilon = 6.1532052 at location (0.00079461383 -0.024835925 2.2516347e-20) in cell 688 on processor 2
    min() of k = 0.052009841 at location (0.00026417399 -0.024835675 2.2670237e-20) in cell 725 on processor 2

volFieldValue cellMax write:
    max() of p = 19.799429 at location (0.20702204 0.025164502 -1.6001003e-20) in cell 1224 on processor 5
    max() of epsilon = 4744.266 at location (0.0029581573 -0.00018426227 0) in cell 79 on processor 2
    max() of k = 4.8086206 at location (0.057833411 -0.0086951612 0) in cell 222 on processor 1

volFieldValue cellMinMag write:
    minMag() of U = 0.014137065 at location (0.00026417399 -0.024835675 2.2670237e-20) in cell 725 on processor 2

volFieldValue cellMaxMag write:
    maxMag() of U = 11.12594 at location (0.037308407 0.0053364541 -1.4923233e-20) in cell 861 on processor 0

Time = 38s

smoothSolver:  Solving for Ux, Initial residual = 0.0071060675, Final residual = 0.00047865311, No Iterations 6
smoothSolver:  Solving for Uy, Initial residual = 0.024169991, Final residual = 0.0016461648, No Iterations 6
GAMG:  Solving for p, Initial residual = 0.033713979, Final residual = 0.0028806444, No Iterations 5
time step continuity errors : sum local = 0.12417855, global = 0.02524683, cumulative = -0.8566236
smoothSolver:  Solving for epsilon, Initial residual = 0.014108267, Final residual = 0.0010001873, No Iterations 5
smoothSolver:  Solving for k, Initial residual = 0.02205165, Final residual = 0.0014716097, No Iterations 6
ExecutionTime = 0.732019 s  ClockTime = 1 s

volFieldValue cellMin write:
    min() of p = -17.856778 at location (0.040620408 -0.0045810434 2.6286021e-20) in cell 785 on processor 1
    min() of epsilon = 5.8798173 at location (0.00079461383 -0.024835925 2.2516347e-20) in cell 688 on processor 2
    min() of k = 0.048968887 at location (0.00026417399 -0.024835675 2.2670237e-20) in cell 725 on processor 2

volFieldValue cellMax write:
    max() of p = 19.763442 at location (0.20702204 0.025164502 -1.6001003e-20) in cell 1224 on processor 5
    max() of epsilon = 4761.5836 at location (0.0029581573 -0.00018426227 0) in cell 79 on processor 2
    max() of k = 4.8238403 at location (0.058811478 -0.0098099715 0) in cell 237 on processor 1

volFieldValue cellMinMag write:
    minMag() of U = 0.024479563 at location (0.00026417399 -0.024835675 2.2670237e-20) in cell 725 on processor 2

volFieldValue cellMaxMag write:
    maxMag() of U = 11.108843 at location (0.03812686 0.0053625942 0) in cell 813 on processor 0

Time = 39s

smoothSolver:  Solving for Ux, Initial residual = 0.0067983922, Final residual = 0.00045768675, No Iterations 6
smoothSolver:  Solving for Uy, Initial residual = 0.02404237, Final residual = 0.0016446634, No Iterations 6
GAMG:  Solving for p, Initial residual = 0.03409357, Final residual = 0.0031283016, No Iterations 4
time step continuity errors : sum local = 0.13169768, global = -0.026554789, cumulative = -0.88317839
smoothSolver:  Solving for epsilon, Initial residual = 0.013323511, Final residual = 0.00095419179, No Iterations 5
smoothSolver:  Solving for k, Initial residual = 0.021081164, Final residual = 0.001402943, No Iterations 6
ExecutionTime = 0.745189 s  ClockTime = 1 s

volFieldValue cellMin write:
    min() of p = -17.962085 at location (0.041464609 -0.0045936759 0) in cell 741 on processor 1
    min() of epsilon = 5.7573593 at location (0.00079461383 -0.024835925 2.2516347e-20) in cell 688 on processor 2
    min() of k = 0.0480876 at location (0.00026417399 -0.024835675 2.2670237e-20) in cell 725 on processor 2

volFieldValue cellMax write:
    max() of p = 19.620739 at location (0.20702204 0.025164502 -1.6001003e-20) in cell 1224 on processor 5
    max() of epsilon = 4778.3679 at location (0.0029581573 -0.00018426227 0) in cell 79 on processor 2
    max() of k = 4.8329886 at location (0.060790426 -0.009836174 -1.722914e-20) in cell 299 on processor 1

volFieldValue cellMinMag write:
    minMag() of U = 0.032760936 at location (0.00026417399 -0.024835675 2.2670237e-20) in cell 725 on processor 2

volFieldValue cellMaxMag write:
    maxMag() of U = 11.092002 at location (0.038951712 0.0053889418 0) in cell 764 on processor 0

Time = 40s

smoothSolver:  Solving for Ux, Initial residual = 0.0065148838, Final residual = 0.00044040837, No Iterations 6
smoothSolver:  Solving for Uy, Initial residual = 0.023924281, Final residual = 0.0016543251, No Iterations 6
GAMG:  Solving for p, Initial residual = 0.034500057, Final residual = 0.0027828964, No Iterations 5
time step continuity errors : sum local = 0.11305961, global = 0.022112937, cumulative = -0.86106545
smoothSolver:  Solving for epsilon, Initial residual = 0.012640203, Final residual = 0.00091224113, No Iterations 5
smoothSolver:  Solving for k, Initial residual = 0.020127663, Final residual = 0.0013374346, No Iterations 6
ExecutionTime = 0.757475 s  ClockTime = 1 s

volFieldValue cellMin write:
    min() of p = -17.907927 at location (0.042315447 -0.0038293264 -4.1169897e-20) in cell 657 on processor 1
    min() of epsilon = 5.7762724 at location (0.00079461383 -0.024835925 2.2516347e-20) in cell 688 on processor 2
    min() of k = 0.047362145 at location (0.00026417399 -0.024835675 2.2670237e-20) in cell 725 on processor 2

volFieldValue cellMax write:
    max() of p = 19.558718 at location (0.20702204 0.025164502 -1.6001003e-20) in cell 1224 on processor 5
    max() of epsilon = 4805.0893 at location (0.0029581573 -0.00018426227 0) in cell 79 on processor 2
    max() of k = 4.8328475 at location (0.061791432 -0.0098494316 0) in cell 333 on processor 1

volFieldValue cellMinMag write:
    minMag() of U = 0.037593026 at location (0.00026417399 -0.024835675 2.2670237e-20) in cell 725 on processor 2

volFieldValue cellMaxMag write:
    maxMag() of U = 11.075573 at location (0.039782915 0.0054154919 2.3175974e-20) in cell 714 on processor 0

Time = 41s

smoothSolver:  Solving for Ux, Initial residual = 0.0062407261, Final residual = 0.00042497452, No Iterations 6
smoothSolver:  Solving for Uy, Initial residual = 0.023972088, Final residual = 0.0016708733, No Iterations 6
GAMG:  Solving for p, Initial residual = 0.034145266, Final residual = 0.0025872755, No Iterations 4
time step continuity errors : sum local = 0.10351189, global = -0.017708426, cumulative = -0.87877388
smoothSolver:  Solving for epsilon, Initial residual = 0.012007002, Final residual = 0.00086866916, No Iterations 5
smoothSolver:  Solving for k, Initial residual = 0.019238648, Final residual = 0.0012767253, No Iterations 6
ExecutionTime = 0.767925 s  ClockTime = 1 s

volFieldValue cellMin write:
    min() of p = -17.759203 at location (0.04403685 -0.0038533589 -1.2984171e-20) in cell 575 on processor 1
    min() of epsilon = 5.6718098 at location (0.00079461383 -0.024835925 2.2516347e-20) in cell 688 on processor 2
    min() of k = 0.045515996 at location (0.00026417399 -0.024835675 2.2670237e-20) in cell 725 on processor 2

volFieldValue cellMax write:
    max() of p = 19.518635 at location (0.20702204 0.025164502 -1.6001003e-20) in cell 1224 on processor 5
    max() of epsilon = 4823.0853 at location (0.0029581573 -0.00018426227 0) in cell 79 on processor 2
    max() of k = 4.8367293 at location (0.062800229 -0.010934324 -1.7012947e-20) in cell 403 on processor 1

volFieldValue cellMinMag write:
    minMag() of U = 0.039232377 at location (0.00026417399 -0.023707025 -1.5615387e-20) in cell 689 on processor 2

volFieldValue cellMaxMag write:
    maxMag() of U = 11.060509 at location (0.040620568 0.005442247 1.579686e-20) in cell 665 on processor 0

Time = 42s

smoothSolver:  Solving for Ux, Initial residual = 0.0060351765, Final residual = 0.00041332481, No Iterations 6
smoothSolver:  Solving for Uy, Initial residual = 0.02409207, Final residual = 0.001689697, No Iterations 6
GAMG:  Solving for p, Initial residual = 0.032981073, Final residual = 0.0025611278, No Iterations 5
time step continuity errors : sum local = 0.10177863, global = 0.016903356, cumulative = -0.86187052
smoothSolver:  Solving for epsilon, Initial residual = 0.011456677, Final residual = 0.00082515739, No Iterations 5
smoothSolver:  Solving for k, Initial residual = 0.018410487, Final residual = 0.0012201472, No Iterations 6
ExecutionTime = 0.780241 s  ClockTime = 1 s

volFieldValue cellMin write:
    min() of p = -17.860696 at location (0.044907602 -0.0038655189 0) in cell 535 on processor 1
    min() of epsilon = 5.4399248 at location (0.00079461383 -0.024835925 2.2516347e-20) in cell 688 on processor 2
    min() of k = 0.043344495 at location (0.00026417399 -0.024835675 2.2670237e-20) in cell 725 on processor 2

volFieldValue cellMax write:
    max() of p = 19.389733 at location (0.20702204 0.025164502 -1.6001003e-20) in cell 1224 on processor 5
    max() of epsilon = 4835.0984 at location (0.0029581573 -0.00018426227 0) in cell 79 on processor 2
    max() of k = 4.8321419 at location (0.064841378 -0.010959474 0) in cell 476 on processor 1

volFieldValue cellMinMag write:
    minMag() of U = 0.028236072 at location (0.00079461383 -0.024835925 2.2516347e-20) in cell 688 on processor 2

volFieldValue cellMaxMag write:
    maxMag() of U = 11.044734 at location (0.042315573 0.0054963846 2.9469647e-20) in cell 571 on processor 0

Time = 43s

smoothSolver:  Solving for Ux, Initial residual = 0.0058340318, Final residual = 0.00040196321, No Iterations 6
smoothSolver:  Solving for Uy, Initial residual = 0.024255003, Final residual = 0.0017049036, No Iterations 6
GAMG:  Solving for p, Initial residual = 0.032918326, Final residual = 0.0028334128, No Iterations 4
time step continuity errors : sum local = 0.1096578, global = -0.022670473, cumulative = -0.88454099
smoothSolver:  Solving for epsilon, Initial residual = 0.010992068, Final residual = 0.00078341898, No Iterations 5
smoothSolver:  Solving for k, Initial residual = 0.017646259, Final residual = 0.0011649045, No Iterations 6
ExecutionTime = 0.791467 s  ClockTime = 1 s

volFieldValue cellMin write:
    min() of p = -17.755418 at location (0.045785154 -0.0038777715 5.2498188e-20) in cell 495 on processor 1
    min() of epsilon = 5.2845786 at location (0.00079461383 -0.024835925 2.2516347e-20) in cell 688 on processor 2
    min() of k = 0.042606745 at location (0.00026417399 -0.024835675 2.2670237e-20) in cell 725 on processor 2

volFieldValue cellMax write:
    max() of p = 19.290896 at location (0.20702204 0.025164502 -1.6001003e-20) in cell 1224 on processor 5
    max() of epsilon = 4839.7181 at location (0.0029581573 -0.00018426227 0) in cell 79 on processor 2
    max() of k = 4.8166292 at location (0.066914477 -0.010985074 0) in cell 552 on processor 1

volFieldValue cellMinMag write:
    minMag() of U = 0.017496377 at location (0.00079461383 -0.024835925 2.2516347e-20) in cell 688 on processor 2

volFieldValue cellMaxMag write:
    maxMag() of U = 11.029201 at location (0.043172977 0.0055237673 0) in cell 526 on processor 0

Time = 44s

smoothSolver:  Solving for Ux, Initial residual = 0.0056696963, Final residual = 0.00039219772, No Iterations 6
smoothSolver:  Solving for Uy, Initial residual = 0.024481702, Final residual = 0.00171896, No Iterations 6
GAMG:  Solving for p, Initial residual = 0.032535929, Final residual = 0.0024998455, No Iterations 5
time step continuity errors : sum local = 0.095572231, global = 0.017814804, cumulative = -0.86672619
smoothSolver:  Solving for epsilon, Initial residual = 0.010565794, Final residual = 0.00074302148, No Iterations 5
smoothSolver:  Solving for k, Initial residual = 0.016911788, Final residual = 0.0011108909, No Iterations 6
ExecutionTime = 0.803769 s  ClockTime = 1 s

volFieldValue cellMin write:
    min() of p = -17.649141 at location (0.046669504 -0.0038901189 0) in cell 456 on processor 1
    min() of epsilon = 5.2282771 at location (0.00079461383 -0.024835925 2.2516347e-20) in cell 688 on processor 2
    min() of k = 0.041335369 at location (0.00026417399 -0.024835675 2.2670237e-20) in cell 725 on processor 2

volFieldValue cellMax write:
    max() of p = 19.240119 at location (0.20702204 0.025164502 -1.6001003e-20) in cell 1224 on processor 5
    max() of epsilon = 4849.9319 at location (0.0029581573 -0.00018426227 0) in cell 79 on processor 2
    max() of k = 4.8033597 at location (0.067963084 -0.012064799 0) in cell 631 on processor 1

volFieldValue cellMinMag write:
    minMag() of U = 0.011022949 at location (0.00079461383 -0.024835925 2.2516347e-20) in cell 688 on processor 2

volFieldValue cellMaxMag write:
    maxMag() of U = 11.014853 at location (0.044036979 0.0055513648 0) in cell 483 on processor 0

Time = 45s

smoothSolver:  Solving for Ux, Initial residual = 0.0055178612, Final residual = 0.00038267864, No Iterations 6
smoothSolver:  Solving for Uy, Initial residual = 0.024719254, Final residual = 0.0017287763, No Iterations 6
GAMG:  Solving for p, Initial residual = 0.031909159, Final residual = 0.0027530882, No Iterations 4
time step continuity errors : sum local = 0.10428192, global = -0.019193041, cumulative = -0.88591923
smoothSolver:  Solving for epsilon, Initial residual = 0.010244632, Final residual = 0.00070509114, No Iterations 5
smoothSolver:  Solving for k, Initial residual = 0.016250185, Final residual = 0.0010587487, No Iterations 6
ExecutionTime = 0.815451 s  ClockTime = 1 s

volFieldValue cellMin write:
    min() of p = -17.499719 at location (0.047560756 -0.003902564 2.6538343e-20) in cell 418 on processor 1
    min() of epsilon = 5.0283352 at location (0.00079461383 -0.024835925 2.2516347e-20) in cell 688 on processor 2
    min() of k = 0.03847665 at location (0.00026417399 -0.024835675 2.2670237e-20) in cell 725 on processor 2

volFieldValue cellMax write:
    max() of p = 19.147134 at location (0.20702204 0.025164502 -1.6001003e-20) in cell 1224 on processor 5
    max() of epsilon = 4874.9437 at location (0.0029581573 -0.00018426227 0) in cell 79 on processor 2
    max() of k = 4.7855772 at location (0.069019867 -0.012076849 -2.3829507e-20) in cell 671 on processor 1

volFieldValue cellMinMag write:
    minMag() of U = 0.0042527782 at location (0.00079461383 -0.024835925 2.2516347e-20) in cell 688 on processor 2

volFieldValue cellMaxMag write:
    maxMag() of U = 11.000409 at location (0.044907731 0.0055791774 0) in cell 441 on processor 0

Time = 46s

smoothSolver:  Solving for Ux, Initial residual = 0.0054045334, Final residual = 0.0003744207, No Iterations 6
smoothSolver:  Solving for Uy, Initial residual = 0.024979485, Final residual = 0.0017367292, No Iterations 6
GAMG:  Solving for p, Initial residual = 0.032102169, Final residual = 0.0023601298, No Iterations 5
time step continuity errors : sum local = 0.088872557, global = 0.015698205, cumulative = -0.87022103
smoothSolver:  Solving for epsilon, Initial residual = 0.0099018492, Final residual = 0.00067315266, No Iterations 5
smoothSolver:  Solving for k, Initial residual = 0.015615619, Final residual = 0.0010074777, No Iterations 6
ExecutionTime = 0.827989 s  ClockTime = 1 s

volFieldValue cellMin write:
    min() of p = -17.39099 at location (0.04936406 -0.003927744 1.2287864e-20) in cell 345 on processor 1
    min() of epsilon = 4.7033579 at location (0.00079461383 -0.024835925 2.2516347e-20) in cell 688 on processor 2
[...]
    min() of epsilon = 0.2386893 at location (0.00026417399 -0.024835675 2.2670237e-20) in cell 725 on processor 2
    min() of k = 0.00082895767 at location (0.00026417399 -0.024835675 2.2670237e-20) in cell 725 on processor 2

volFieldValue cellMax write:
    max() of p = 16.723397 at location (0.20702204 0.025164502 -1.6001003e-20) in cell 1224 on processor 5
    max() of epsilon = 4668.423 at location (0.0040652166 -0.00018582228 2.1798902e-20) in cell 108 on processor 2
    max() of k = 5.3312745 at location (0.11589298 -0.0075244372 2.6355599e-20) in cell 495 on processor 7

volFieldValue cellMinMag write:
    minMag() of U = 0.012307504 at location (0.00026417399 -0.024835675 2.2670237e-20) in cell 725 on processor 2

volFieldValue cellMaxMag write:
    maxMag() of U = 10.184684 at location (0.044036951 0.0062772644 0) in cell 525 on processor 0

Time = 252s

smoothSolver:  Solving for Ux, Initial residual = 0.00018813859, Final residual = 1.3430808e-05, No Iterations 6
smoothSolver:  Solving for Uy, Initial residual = 0.0013349117, Final residual = 9.9894653e-05, No Iterations 6
GAMG:  Solving for p, Initial residual = 0.0015189506, Final residual = 0.00012346415, No Iterations 5
time step continuity errors : sum local = 0.0040208546, global = -0.00054135026, cumulative = -1.5816923
smoothSolver:  Solving for epsilon, Initial residual = 0.00032208707, Final residual = 2.851642e-05, No Iterations 5
smoothSolver:  Solving for k, Initial residual = 0.00055004446, Final residual = 4.1062345e-05, No Iterations 6
ExecutionTime = 3.489837 s  ClockTime = 4 s

volFieldValue cellMin write:
    min() of p = -6.4870112 at location (0.053055335 -0.024859775 -3.4744883e-20) in cell 972 on processor 1
    min() of epsilon = 0.23756487 at location (0.00026417399 -0.024835675 2.2670237e-20) in cell 725 on processor 2
    min() of k = 0.00082422985 at location (0.00026417399 -0.024835675 2.2670237e-20) in cell 725 on processor 2

volFieldValue cellMax write:
    max() of p = 16.729824 at location (0.20702204 0.025164502 -1.6001003e-20) in cell 1224 on processor 5
    max() of epsilon = 4668.2169 at location (0.0040652166 -0.00018582228 2.1798902e-20) in cell 108 on processor 2
    max() of k = 5.3285445 at location (0.11589298 -0.0075244372 2.6355599e-20) in cell 495 on processor 7

volFieldValue cellMinMag write:
    minMag() of U = 0.012219387 at location (0.00079461383 -0.023707775 0) in cell 651 on processor 2

volFieldValue cellMaxMag write:
    maxMag() of U = 10.184728 at location (0.044036951 0.0062772644 0) in cell 525 on processor 0

Time = 253s

smoothSolver:  Solving for Ux, Initial residual = 0.00018054018, Final residual = 1.2836228e-05, No Iterations 6
smoothSolver:  Solving for Uy, Initial residual = 0.0012857246, Final residual = 9.6664161e-05, No Iterations 6
GAMG:  Solving for p, Initial residual = 0.0016188802, Final residual = 0.00015032386, No Iterations 4
time step continuity errors : sum local = 0.0048891796, global = 0.00057761659, cumulative = -1.5811147
smoothSolver:  Solving for epsilon, Initial residual = 0.00031686877, Final residual = 2.777169e-05, No Iterations 5
smoothSolver:  Solving for k, Initial residual = 0.00053723401, Final residual = 4.0420525e-05, No Iterations 6
ExecutionTime = 3.500632 s  ClockTime = 4 s

volFieldValue cellMin write:
    min() of p = -6.4844997 at location (0.053055335 -0.024859775 -3.4744883e-20) in cell 972 on processor 1
    min() of epsilon = 0.23620996 at location (0.00026417399 -0.024835675 2.2670237e-20) in cell 725 on processor 2
    min() of k = 0.00081941102 at location (0.00026417399 -0.024835675 2.2670237e-20) in cell 725 on processor 2

volFieldValue cellMax write:
    max() of p = 16.735623 at location (0.20702204 0.025164502 -1.6001003e-20) in cell 1224 on processor 5
    max() of epsilon = 4667.9687 at location (0.0040652166 -0.00018582228 2.1798902e-20) in cell 108 on processor 2
    max() of k = 5.325879 at location (0.11589298 -0.0075244372 2.6355599e-20) in cell 495 on processor 7

volFieldValue cellMinMag write:
    minMag() of U = 0.012178496 at location (0.00079461383 -0.023707775 0) in cell 651 on processor 2

volFieldValue cellMaxMag write:
    maxMag() of U = 10.184767 at location (0.044036951 0.0062772644 0) in cell 525 on processor 0

Time = 254s

smoothSolver:  Solving for Ux, Initial residual = 0.00017330716, Final residual = 1.2370891e-05, No Iterations 6
smoothSolver:  Solving for Uy, Initial residual = 0.0012342198, Final residual = 9.3258662e-05, No Iterations 6
GAMG:  Solving for p, Initial residual = 0.0016571258, Final residual = 0.00012350473, No Iterations 5
time step continuity errors : sum local = 0.0040213892, global = -0.00059543029, cumulative = -1.5817101
smoothSolver:  Solving for epsilon, Initial residual = 0.00030569823, Final residual = 2.6928062e-05, No Iterations 5
smoothSolver:  Solving for k, Initial residual = 0.00052338104, Final residual = 3.9788555e-05, No Iterations 6
ExecutionTime = 3.512037 s  ClockTime = 4 s

volFieldValue cellMin write:
    min() of p = -6.4790002 at location (0.053055335 -0.024859775 -3.4744883e-20) in cell 972 on processor 1
    min() of epsilon = 0.23482897 at location (0.00026417399 -0.024835675 2.2670237e-20) in cell 725 on processor 2
    min() of k = 0.00081594681 at location (0.00026417399 -0.024835675 2.2670237e-20) in cell 725 on processor 2

volFieldValue cellMax write:
    max() of p = 16.744115 at location (0.20702204 0.025164502 -1.6001003e-20) in cell 1224 on processor 5
    max() of epsilon = 4667.7708 at location (0.0040652166 -0.00018582228 2.1798902e-20) in cell 108 on processor 2
    max() of k = 5.3232988 at location (0.11589298 -0.0075244372 2.6355599e-20) in cell 495 on processor 7

volFieldValue cellMinMag write:
    minMag() of U = 0.012261308 at location (0.00026417399 -0.024835675 2.2670237e-20) in cell 725 on processor 2

volFieldValue cellMaxMag write:
    maxMag() of U = 10.184799 at location (0.044036951 0.0062772644 0) in cell 525 on processor 0

Time = 255s

smoothSolver:  Solving for Ux, Initial residual = 0.00016599538, Final residual = 1.1787403e-05, No Iterations 6
smoothSolver:  Solving for Uy, Initial residual = 0.001191958, Final residual = 9.0051909e-05, No Iterations 6
GAMG:  Solving for p, Initial residual = 0.0013795265, Final residual = 0.00010944289, No Iterations 5
time step continuity errors : sum local = 0.0035568561, global = -0.00052383291, cumulative = -1.5822339
smoothSolver:  Solving for epsilon, Initial residual = 0.00029473698, Final residual = 2.609903e-05, No Iterations 5
smoothSolver:  Solving for k, Initial residual = 0.00051158513, Final residual = 3.9296785e-05, No Iterations 6
ExecutionTime = 3.522821 s  ClockTime = 4 s

volFieldValue cellMin write:
    min() of p = -6.4670247 at location (0.053055335 -0.024859775 -3.4744883e-20) in cell 972 on processor 1
    min() of epsilon = 0.23383619 at location (0.00026417399 -0.024835675 2.2670237e-20) in cell 725 on processor 2
    min() of k = 0.00081183375 at location (0.00026417399 -0.024835675 2.2670237e-20) in cell 725 on processor 2

volFieldValue cellMax write:
    max() of p = 16.754983 at location (0.20702204 0.025164502 -1.6001003e-20) in cell 1224 on processor 5
    max() of epsilon = 4667.5882 at location (0.0040652166 -0.00018582228 2.1798902e-20) in cell 108 on processor 2
    max() of k = 5.3208186 at location (0.11589298 -0.0075244372 2.6355599e-20) in cell 495 on processor 7

volFieldValue cellMinMag write:
    minMag() of U = 0.012251076 at location (0.00079461383 -0.023707775 0) in cell 651 on processor 2

volFieldValue cellMaxMag write:
    maxMag() of U = 10.184835 at location (0.044036951 0.0062772644 0) in cell 525 on processor 0

Time = 256s

smoothSolver:  Solving for Ux, Initial residual = 0.00015880674, Final residual = 1.1281196e-05, No Iterations 6
smoothSolver:  Solving for Uy, Initial residual = 0.001156457, Final residual = 8.7651662e-05, No Iterations 6
GAMG:  Solving for p, Initial residual = 0.0014594123, Final residual = 0.00014007159, No Iterations 4
time step continuity errors : sum local = 0.0045452958, global = 0.00063952159, cumulative = -1.5815944
smoothSolver:  Solving for epsilon, Initial residual = 0.00028791006, Final residual = 2.5233192e-05, No Iterations 5
smoothSolver:  Solving for k, Initial residual = 0.00050161867, Final residual = 3.8860385e-05, No Iterations 6
ExecutionTime = 3.53288 s  ClockTime = 4 s

volFieldValue cellMin write:
    min() of p = -6.4627831 at location (0.053055335 -0.024859775 -3.4744883e-20) in cell 972 on processor 1
    min() of epsilon = 0.23265746 at location (0.00026417399 -0.024835675 2.2670237e-20) in cell 725 on processor 2
    min() of k = 0.00080775186 at location (0.00026417399 -0.024835675 2.2670237e-20) in cell 725 on processor 2

volFieldValue cellMax write:
    max() of p = 16.764902 at location (0.20702204 0.025164502 -1.6001003e-20) in cell 1224 on processor 5
    max() of epsilon = 4667.3692 at location (0.0040652166 -0.00018582228 2.1798902e-20) in cell 108 on processor 2
    max() of k = 5.3184537 at location (0.11589298 -0.0075244372 2.6355599e-20) in cell 495 on processor 7

volFieldValue cellMinMag write:
    minMag() of U = 0.012214148 at location (0.00079461383 -0.023707775 0) in cell 651 on processor 2

volFieldValue cellMaxMag write:
    maxMag() of U = 10.184864 at location (0.044036951 0.0062772644 0) in cell 525 on processor 0

Time = 257s

smoothSolver:  Solving for Ux, Initial residual = 0.0001522061, Final residual = 1.0888618e-05, No Iterations 6
smoothSolver:  Solving for Uy, Initial residual = 0.0011166285, Final residual = 8.5066277e-05, No Iterations 6
GAMG:  Solving for p, Initial residual = 0.0014269148, Final residual = 0.00011121384, No Iterations 5
time step continuity errors : sum local = 0.0036114525, global = -0.00054607161, cumulative = -1.5821405
smoothSolver:  Solving for epsilon, Initial residual = 0.00027660968, Final residual = 2.4358888e-05, No Iterations 5
smoothSolver:  Solving for k, Initial residual = 0.00049072887, Final residual = 3.8331152e-05, No Iterations 6
ExecutionTime = 3.544676 s  ClockTime = 4 s

volFieldValue cellMin write:
    min() of p = -6.450755 at location (0.053055335 -0.024859775 -3.4744883e-20) in cell 972 on processor 1
    min() of epsilon = 0.23148766 at location (0.00026417399 -0.024835675 2.2670237e-20) in cell 725 on processor 2
    min() of k = 0.00080491398 at location (0.00026417399 -0.024835675 2.2670237e-20) in cell 725 on processor 2

volFieldValue cellMax write:
    max() of p = 16.778669 at location (0.20702204 0.025164502 -1.6001003e-20) in cell 1224 on processor 5
    max() of epsilon = 4667.1788 at location (0.0040652166 -0.00018582228 2.1798902e-20) in cell 108 on processor 2
    max() of k = 5.3162177 at location (0.11589298 -0.0075244372 2.6355599e-20) in cell 495 on processor 7

volFieldValue cellMinMag write:
    minMag() of U = 0.012219449 at location (0.00026417399 -0.024835675 2.2670237e-20) in cell 725 on processor 2

volFieldValue cellMaxMag write:
    maxMag() of U = 10.1849 at location (0.044036951 0.0062772644 0) in cell 525 on processor 0

Time = 258s

smoothSolver:  Solving for Ux, Initial residual = 0.00014594796, Final residual = 1.0364904e-05, No Iterations 6
smoothSolver:  Solving for Uy, Initial residual = 0.0010914051, Final residual = 8.294747e-05, No Iterations 6
GAMG:  Solving for p, Initial residual = 0.0012158242, Final residual = 9.2931274e-05, No Iterations 5
time step continuity errors : sum local = 0.003011288, global = -0.00047492, cumulative = -1.5826154
smoothSolver:  Solving for epsilon, Initial residual = 0.00026452648, Final residual = 2.3479107e-05, No Iterations 5
smoothSolver:  Solving for k, Initial residual = 0.00048123626, Final residual = 3.7811166e-05, No Iterations 6
ExecutionTime = 3.556156 s  ClockTime = 4 s

volFieldValue cellMin write:
    min() of p = -6.4463305 at location (0.053055335 -0.024859775 -3.4744883e-20) in cell 972 on processor 1
    min() of epsilon = 0.23067437 at location (0.00026417399 -0.024835675 2.2670237e-20) in cell 725 on processor 2
    min() of k = 0.0008013551 at location (0.00026417399 -0.024835675 2.2670237e-20) in cell 725 on processor 2

volFieldValue cellMax write:
    max() of p = 16.790176 at location (0.20702204 0.025164502 -1.6001003e-20) in cell 1224 on processor 5
    max() of epsilon = 4667.0057 at location (0.0040652166 -0.00018582228 2.1798902e-20) in cell 108 on processor 2
    max() of k = 5.3141218 at location (0.11589298 -0.0075244372 2.6355599e-20) in cell 495 on processor 7

volFieldValue cellMinMag write:
    minMag() of U = 0.012231735 at location (0.00026417399 -0.024835675 2.2670237e-20) in cell 725 on processor 2

volFieldValue cellMaxMag write:
    maxMag() of U = 10.184929 at location (0.044036951 0.0062772644 0) in cell 525 on processor 0

Time = 259s

smoothSolver:  Solving for Ux, Initial residual = 0.00013982977, Final residual = 9.9867082e-06, No Iterations 6
smoothSolver:  Solving for Uy, Initial residual = 0.0010586631, Final residual = 8.1380031e-05, No Iterations 6
GAMG:  Solving for p, Initial residual = 0.0013297554, Final residual = 8.9421751e-05, No Iterations 5
time step continuity errors : sum local = 0.0028946662, global = -0.00043902736, cumulative = -1.5830544
smoothSolver:  Solving for epsilon, Initial residual = 0.00025951893, Final residual = 2.2678078e-05, No Iterations 5
smoothSolver:  Solving for k, Initial residual = 0.00047371468, Final residual = 3.7275961e-05, No Iterations 6
ExecutionTime = 3.567472 s  ClockTime = 4 s

volFieldValue cellMin write:
    min() of p = -6.4387463 at location (0.053996234 -0.024860225 0) in cell 933 on processor 1
    min() of epsilon = 0.22965446 at location (0.00026417399 -0.024835675 2.2670237e-20) in cell 725 on processor 2
    min() of k = 0.00079790712 at location (0.00026417399 -0.024835675 2.2670237e-20) in cell 725 on processor 2

volFieldValue cellMax write:
    max() of p = 16.802927 at location (0.20702204 0.025164502 -1.6001003e-20) in cell 1224 on processor 5
    max() of epsilon = 4666.7855 at location (0.0040652166 -0.00018582228 2.1798902e-20) in cell 108 on processor 2
    max() of k = 5.3121737 at location (0.11589298 -0.0075244372 2.6355599e-20) in cell 495 on processor 7

volFieldValue cellMinMag write:
    minMag() of U = 0.012195692 at location (0.00026417399 -0.024835675 2.2670237e-20) in cell 725 on processor 2

volFieldValue cellMaxMag write:
    maxMag() of U = 10.184952 at location (0.044036951 0.0062772644 0) in cell 525 on processor 0

Time = 260s

smoothSolver:  Solving for Ux, Initial residual = 0.0001346692, Final residual = 9.6444285e-06, No Iterations 6
smoothSolver:  Solving for Uy, Initial residual = 0.0010394032, Final residual = 8.0059701e-05, No Iterations 6
GAMG:  Solving for p, Initial residual = 0.0014969039, Final residual = 0.00013046895, No Iterations 4
time step continuity errors : sum local = 0.0042277561, global = 0.00064532381, cumulative = -1.5824091
smoothSolver:  Solving for epsilon, Initial residual = 0.00024770361, Final residual = 2.1721351e-05, No Iterations 5
smoothSolver:  Solving for k, Initial residual = 0.00046311168, Final residual = 3.6523315e-05, No Iterations 6
ExecutionTime = 3.578558 s  ClockTime = 4 s

volFieldValue cellMin write:
    min() of p = -6.4259228 at location (0.053996234 -0.024860225 0) in cell 933 on processor 1
    min() of epsilon = 0.22866633 at location (0.00026417399 -0.024835675 2.2670237e-20) in cell 725 on processor 2
    min() of k = 0.00079585316 at location (0.00026417399 -0.024835675 2.2670237e-20) in cell 725 on processor 2

volFieldValue cellMax write:
    max() of p = 16.818499 at location (0.20702204 0.025164502 -1.6001003e-20) in cell 1224 on processor 5
    max() of epsilon = 4666.6376 at location (0.0040652166 -0.00018582228 2.1798902e-20) in cell 108 on processor 2
    max() of k = 5.3103781 at location (0.11589298 -0.0075244372 2.6355599e-20) in cell 495 on processor 7

volFieldValue cellMinMag write:
    minMag() of U = 0.012178227 at location (0.00026417399 -0.024835675 2.2670237e-20) in cell 725 on processor 2

volFieldValue cellMaxMag write:
    maxMag() of U = 10.184976 at location (0.044036951 0.0062772644 0) in cell 525 on processor 0

Time = 261s

smoothSolver:  Solving for Ux, Initial residual = 0.00012920397, Final residual = 9.3062033e-06, No Iterations 6
smoothSolver:  Solving for Uy, Initial residual = 0.0010078097, Final residual = 7.8274065e-05, No Iterations 6
GAMG:  Solving for p, Initial residual = 0.0012142828, Final residual = 9.4676169e-05, No Iterations 5
time step continuity errors : sum local = 0.0030595339, global = -0.00048355511, cumulative = -1.5828927
smoothSolver:  Solving for epsilon, Initial residual = 0.00023448418, Final residual = 2.084887e-05, No Iterations 5
smoothSolver:  Solving for k, Initial residual = 0.00045319681, Final residual = 3.5764326e-05, No Iterations 6
ExecutionTime = 3.590067 s  ClockTime = 4 s

volFieldValue cellMin write:
    min() of p = -6.4163606 at location (0.053996234 -0.024860225 0) in cell 933 on processor 1
    min() of epsilon = 0.2280777 at location (0.00026417399 -0.024835675 2.2670237e-20) in cell 725 on processor 2
    min() of k = 0.00079278138 at location (0.00026417399 -0.024835675 2.2670237e-20) in cell 725 on processor 2

volFieldValue cellMax write:
    max() of p = 16.833864 at location (0.20702204 0.025164502 -1.6001003e-20) in cell 1224 on processor 5
    max() of epsilon = 4666.4936 at location (0.0040652166 -0.00018582228 2.1798902e-20) in cell 108 on processor 2
    max() of k = 5.3087429 at location (0.11589298 -0.0075244372 2.6355599e-20) in cell 495 on processor 7

volFieldValue cellMinMag write:
    minMag() of U = 0.012208795 at location (0.00026417399 -0.024835675 2.2670237e-20) in cell 725 on processor 2

volFieldValue cellMaxMag write:
    maxMag() of U = 10.185006 at location (0.044036951 0.0062772644 0) in cell 525 on processor 0

Time = 262s

smoothSolver:  Solving for Ux, Initial residual = 0.00012461986, Final residual = 8.9227227e-06, No Iterations 6
smoothSolver:  Solving for Uy, Initial residual = 0.00099103868, Final residual = 7.7081104e-05, No Iterations 6
GAMG:  Solving for p, Initial residual = 0.0012824442, Final residual = 0.00010776927, No Iterations 4
time step continuity errors : sum local = 0.0034776635, global = 0.0004477949, cumulative = -1.5824449
smoothSolver:  Solving for epsilon, Initial residual = 0.00022936704, Final residual = 2.0006278e-05, No Iterations 5
smoothSolver:  Solving for k, Initial residual = 0.00044361415, Final residual = 3.4959776e-05, No Iterations 6
ExecutionTime = 3.600522 s  ClockTime = 4 s


SIMPLE solution converged in 262 iterations

streamlines streamlines write:
    Seeded 10 particles
    Sampled 12040 locations
volFieldValue cellMin write:
    min() of p = -6.408792 at location (0.053996234 -0.024860225 0) in cell 933 on processor 1
    min() of epsilon = 0.22719738 at location (0.00026417399 -0.024835675 2.2670237e-20) in cell 725 on processor 2
    min() of k = 0.00078979477 at location (0.00026417399 -0.024835675 2.2670237e-20) in cell 725 on processor 2

volFieldValue cellMax write:
    max() of p = 16.847008 at location (0.20702204 0.025164502 -1.6001003e-20) in cell 1224 on processor 5
    max() of epsilon = 4666.2867 at location (0.0040652166 -0.00018582228 2.1798902e-20) in cell 108 on processor 2
    max() of k = 5.3072684 at location (0.11589298 -0.0075244372 2.6355599e-20) in cell 495 on processor 7

volFieldValue cellMinMag write:
    minMag() of U = 0.0121757 at location (0.00026417399 -0.024835675 2.2670237e-20) in cell 725 on processor 2

volFieldValue cellMaxMag write:
    maxMag() of U = 10.185031 at location (0.044036951 0.0062772644 0) in cell 525 on processor 0

End

Finalising parallel run
